   Input file: /home/zhouw/Documents/Codes/ReactiveSoluteTransport/Benchmark/gypsum_single_fracture_10cm_ap5mm/results_total_injection_reference_volume_20260426_151504/phreeqc/tt_1e03/tt_1e03.pqi
  Output file: /home/zhouw/Documents/Codes/ReactiveSoluteTransport/Benchmark/gypsum_single_fracture_10cm_ap5mm/results_total_injection_reference_volume_20260426_151504/phreeqc/tt_1e03/tt_1e03.pqo
Database file: /home/zhouw/Documents/Codes/phreeqc-3.8.6-17100/database/phreeqc.dat

------------------
Reading data base.
------------------

	SOLUTION_MASTER_SPECIES
	SOLUTION_SPECIES
	PHASES
	GAS_BINARY_PARAMETERS
	EXCHANGE_MASTER_SPECIES
	EXCHANGE_SPECIES
	SURFACE_MASTER_SPECIES
	SURFACE_SPECIES
	MEAN_GAMMAS
	RATES
	END
------------------------------------
Reading input data for simulation 1.
------------------------------------

	TITLE Total-injection reference gypsum kinetics for t_cross=1.000000e+03 s
	SOLUTION 1 Pure water
	    temp    25.0
	    pH      7.0
	    pe      4.0
	    water  5.000000000000e+00
	RATES
	Gypsum
	start
	  10 omega = SR("Gypsum")
	  20 IF (M <= 0 AND omega <= 1) THEN GOTO 100
	  30 area = PARM(2)
	  40 rate = PARM(1) * area * (1 - omega)
	  50 moles = rate * TIME
	  60 IF (moles > 0 AND moles > M) THEN moles = M
	  70 GOTO 200
	  100 moles = 0
	  200 SAVE moles
	end
	KINETICS 1
	Gypsum
	    parms  4.000000000000e-05  2.000000000000e-02
	    m0     6.765899864682e+01
	    m      6.765899864682e+01
	    tol    1e-8
	    steps  1 1 2 3 5 8 10 20 30 50 80 100 200 300 500 800 1000 2000 3000 5000 8000 10000 20000 30000 50000 80000 100000
	    step_divide 1e-6
	    bad_step_max 50000
	    runge_kutta 6
	INCREMENTAL_REACTIONS true
	SELECTED_OUTPUT
	    file                tt_1e03.sel
	    reset               false
	    totals              Ca S(6)
	    kinetics            Gypsum
	    saturation_indices  Gypsum
	USER_PUNCH
	    headings Time_s pH SI_Gypsum V_Gyp_cm3 DV_Gyp_cm3
	start
	  10 PUNCH TOTAL_TIME
	  20 PUNCH -LA("H+")
	  30 PUNCH SI("Gypsum")
	  40 v_gyp = KIN("Gypsum") * 73.9
	  50 PUNCH v_gyp
	  60 PUNCH 5.000000000000e+03 - v_gyp
	end
	END
-----
TITLE
-----

 Total-injection reference gypsum kinetics for t_cross=1.000000e+03 s

-------------------------------------------
Beginning of initial solution calculations.
-------------------------------------------

Initial solution 1.	Pure water

-----------------------------Solution composition------------------------------

	Elements           Molality       Moles

	Pure water     

----------------------------Description of solution----------------------------

                                       pH  =   7.000    
                                       pe  =   4.000    
      Specific Conductance (µS/cm,  25°C)  = 0
                          Density (g/cm³)  =   0.99704
                               Volume (L)  =   5.01483
                        Viscosity (mPa s)  =   0.89002
                        Activity of water  =   1.000
                 Ionic strength (mol/kgw)  =   1.006e-07
                       Mass of water (kg)  =   5.000e+00
                 Total alkalinity (eq/kg)  =   1.216e-09
                         Temperature (°C)  =  25.00
                  Electrical balance (eq)  =  -6.082e-09
 Percent error, 100*(Cat-|An|)/(Cat+|An|)  =  -0.60
                               Iterations  =   2
                                  Total H  = 5.550622e+02
                                  Total O  = 2.775311e+02

----------------------------Distribution of species----------------------------

                                               Log       Log       Log    mole V
   Species          Molality    Activity  Molality  Activity     Gamma   cm³/mol

   OH-             1.013e-07   1.012e-07    -6.995    -6.995    -0.000     -4.14
   H+              1.000e-07   1.000e-07    -7.000    -7.000    -0.000      0.00
   H2O             5.551e+01   1.000e+00     1.744    -0.000     0.000     18.07
H(0)          1.416e-25
   H2              7.079e-26   7.079e-26   -25.150   -25.150     0.000     28.61
O(0)          0.000e+00
   O2              0.000e+00   0.000e+00   -42.080   -42.080     0.000     30.40

------------------------------Saturation indices-------------------------------

  Phase               SI** log IAP   log K(298 K,   1 atm)

  H2(g)           -22.05    -25.15   -3.10  H2
  H2O(g)           -1.50     -0.00    1.50  H2O
  O2(g)           -39.19    -42.08   -2.89  O2

**For a gas, SI = log10(fugacity). Fugacity = pressure * phi / 1 atm.
  For ideal gases, phi = 1.

-----------------------------------------
Beginning of batch-reaction calculations.
-----------------------------------------

Reaction step 1.

Using solution 1.	Pure water
Using kinetics 1.	

Kinetics 1.	

	Time step: 1 seconds  (Incremented time: 1 seconds)

	Rate name       Delta Moles Total Moles   Reactant        Coefficient

	Gypsum           -8.000e-07   6.766e+01   Gypsum                    1

-----------------------------Solution composition------------------------------

	Elements           Molality       Moles

	Ca                1.600e-07   8.000e-07
	S                 1.600e-07   8.000e-07

----------------------------Description of solution----------------------------

                                       pH  =   7.000      Charge balance
                                       pe  =  -1.671      Adjusted to redox equilibrium
      Specific Conductance (µS/cm,  25°C)  = 0
                          Density (g/cm³)  =   0.99704
                               Volume (L)  =   5.01483
                        Viscosity (mPa s)  =   0.89003
                        Activity of water  =   1.000
                 Ionic strength (mol/kgw)  =   7.407e-07
                       Mass of water (kg)  =   5.000e+00
                 Total alkalinity (eq/kg)  =   1.216e-09
                         Temperature (°C)  =  25.00
                  Electrical balance (eq)  =  -6.082e-09
 Percent error, 100*(Cat-|An|)/(Cat+|An|)  =  -0.14
                               Iterations  =  60
                                  Total H  = 5.550622e+02
                                  Total O  = 2.775311e+02

----------------------------Distribution of species----------------------------

                                               Log       Log       Log    mole V
   Species          Molality    Activity  Molality  Activity     Gamma   cm³/mol

   OH-             1.013e-07   1.012e-07    -6.994    -6.995    -0.000     -4.14
   H+              1.001e-07   1.000e-07    -7.000    -7.000    -0.000      0.00
   H2O             5.551e+01   1.000e+00     1.744    -0.000     0.000     18.07
Ca            1.600e-07
   Ca+2            1.600e-07   1.594e-07    -6.796    -6.798    -0.002    -18.25
   CaSO4           4.515e-12   4.515e-12   -11.345   -11.345     0.000      7.50
   CaOH+           2.647e-13   2.645e-13   -12.577   -12.578    -0.000     (0)  
   CaHSO4+         2.971e-18   2.968e-18   -17.527   -17.528    -0.000     (0)  
H(0)          3.116e-14
   H2              1.558e-14   1.558e-14   -13.807   -13.807     0.000     28.61
O(0)          0.000e+00
   O2              0.000e+00   0.000e+00   -64.765   -64.765     0.000     30.40
S(-2)         3.130e-23
   HS-             1.671e-23   1.669e-23   -22.777   -22.778    -0.000     20.57
   H2S             1.459e-23   1.459e-23   -22.836   -22.836     0.000     36.27
   S-2             2.024e-29   2.016e-29   -28.694   -28.696    -0.002     (0)  
   (H2S)2          0.000e+00   0.000e+00   -46.950   -46.950     0.000     30.09
S(6)          1.600e-07
   SO4-2           1.600e-07   1.593e-07    -6.796    -6.798    -0.002     14.40
   CaSO4           4.515e-12   4.515e-12   -11.345   -11.345     0.000      7.50
   HSO4-           1.551e-12   1.549e-12   -11.809   -11.810    -0.000     40.25
   CaHSO4+         2.971e-18   2.968e-18   -17.527   -17.528    -0.000     (0)  

------------------------------Saturation indices-------------------------------

  Phase               SI** log IAP   log K(298 K,   1 atm)

  Anhydrite        -9.32    -13.60   -4.28  CaSO4
  Gypsum           -9.01    -13.60   -4.58  CaSO4:2H2O
  H2(g)           -10.71    -13.81   -3.10  H2
  H2O(g)           -1.50     -0.00    1.50  H2O
  H2S(g)          -21.84    -29.78   -7.94  H2S
  O2(g)           -61.87    -64.77   -2.89  O2
  Sulfur          -17.06    -12.18    4.88  S

**For a gas, SI = log10(fugacity). Fugacity = pressure * phi / 1 atm.
  For ideal gases, phi = 1.

Reaction step 2.

Using solution 1.	Pure water
Using kinetics 1.	

Kinetics 1.	

	Time step: 1 seconds  (Incremented time: 2 seconds)

	Rate name       Delta Moles Total Moles   Reactant        Coefficient

	Gypsum           -8.000e-07   6.766e+01   Gypsum                    1

-----------------------------Solution composition------------------------------

	Elements           Molality       Moles

	Ca                3.200e-07   1.600e-06
	S                 3.200e-07   1.600e-06

----------------------------Description of solution----------------------------

                                       pH  =   7.000      Charge balance
                                       pe  =  -1.358      Adjusted to redox equilibrium
      Specific Conductance (µS/cm,  25°C)  = 0
                          Density (g/cm³)  =   0.99704
                               Volume (L)  =   5.01483
                        Viscosity (mPa s)  =   0.89004
                        Activity of water  =   1.000
                 Ionic strength (mol/kgw)  =   1.381e-06
                       Mass of water (kg)  =   5.000e+00
                 Total alkalinity (eq/kg)  =   1.216e-09
                         Temperature (°C)  =  25.00
                  Electrical balance (eq)  =  -6.082e-09
 Percent error, 100*(Cat-|An|)/(Cat+|An|)  =  -0.08
                               Iterations  =  44
                                  Total H  = 5.550622e+02
                                  Total O  = 2.775311e+02

----------------------------Distribution of species----------------------------

                                               Log       Log       Log    mole V
   Species          Molality    Activity  Molality  Activity     Gamma   cm³/mol

   OH-             1.014e-07   1.012e-07    -6.994    -6.995    -0.001     -4.14
   H+              1.001e-07   1.000e-07    -6.999    -7.000    -0.001      0.00
   H2O             5.551e+01   1.000e+00     1.744    -0.000     0.000     18.07
Ca            3.200e-07
   Ca+2            3.200e-07   3.182e-07    -6.495    -6.497    -0.002    -18.25
   CaSO4           1.801e-11   1.801e-11   -10.745   -10.745     0.000      7.50
   CaOH+           5.289e-13   5.281e-13   -12.277   -12.277    -0.001     (0)  
   CaHSO4+         1.185e-17   1.184e-17   -16.926   -16.927    -0.001     (0)  
H(0)          7.356e-15
   H2              3.678e-15   3.678e-15   -14.434   -14.434     0.000     28.61
O(0)          0.000e+00
   O2              0.000e+00   0.000e+00   -63.511   -63.511     0.000     30.40
S(-2)         1.943e-25
   HS-             1.037e-25   1.036e-25   -24.984   -24.985    -0.001     20.57
   H2S             9.055e-26   9.055e-26   -25.043   -25.043     0.000     36.27
   S-2             1.258e-31   1.251e-31   -30.900   -30.903    -0.002     (0)  
   (H2S)2          0.000e+00   0.000e+00   -51.364   -51.364     0.000     30.09
S(6)          3.200e-07
   SO4-2           3.200e-07   3.182e-07    -6.495    -6.497    -0.002     14.42
   CaSO4           1.801e-11   1.801e-11   -10.745   -10.745     0.000      7.50
   HSO4-           3.098e-12   3.094e-12   -11.509   -11.509    -0.001     40.25
   CaHSO4+         1.185e-17   1.184e-17   -16.926   -16.927    -0.001     (0)  

------------------------------Saturation indices-------------------------------

  Phase               SI** log IAP   log K(298 K,   1 atm)

  Anhydrite        -8.72    -12.99   -4.28  CaSO4
  Gypsum           -8.41    -12.99   -4.58  CaSO4:2H2O
  H2(g)           -11.33    -14.43   -3.10  H2
  H2O(g)           -1.50     -0.00    1.50  H2O
  H2S(g)          -24.05    -31.98   -7.94  H2S
  O2(g)           -60.62    -63.51   -2.89  O2
  Sulfur          -18.64    -13.76    4.88  S

**For a gas, SI = log10(fugacity). Fugacity = pressure * phi / 1 atm.
  For ideal gases, phi = 1.

Reaction step 3.

Using solution 1.	Pure water
Using kinetics 1.	

Kinetics 1.	

	Time step: 2 seconds  (Incremented time: 4 seconds)

	Rate name       Delta Moles Total Moles   Reactant        Coefficient

	Gypsum           -1.600e-06   6.766e+01   Gypsum                    1

-----------------------------Solution composition------------------------------

	Elements           Molality       Moles

	Ca                6.400e-07   3.200e-06
	S                 6.400e-07   3.200e-06

----------------------------Description of solution----------------------------

                                       pH  =   7.000      Charge balance
                                       pe  =  10.959      Adjusted to redox equilibrium
      Specific Conductance (µS/cm,  25°C)  = 0
                          Density (g/cm³)  =   0.99704
                               Volume (L)  =   5.01483
                        Viscosity (mPa s)  =   0.89004
                        Activity of water  =   1.000
                 Ionic strength (mol/kgw)  =   2.661e-06
                       Mass of water (kg)  =   5.000e+00
                 Total alkalinity (eq/kg)  =   1.216e-09
                         Temperature (°C)  =  25.00
                  Electrical balance (eq)  =  -6.082e-09
 Percent error, 100*(Cat-|An|)/(Cat+|An|)  =  -0.04
                               Iterations  = 105
                                  Total H  = 5.550622e+02
                                  Total O  = 2.775311e+02

----------------------------Distribution of species----------------------------

                                               Log       Log       Log    mole V
   Species          Molality    Activity  Molality  Activity     Gamma   cm³/mol

   OH-             1.014e-07   1.012e-07    -6.994    -6.995    -0.001     -4.14
   H+              1.002e-07   1.000e-07    -6.999    -7.000    -0.001      0.00
   H2O             5.551e+01   1.000e+00     1.744    -0.000     0.000     18.07
Ca            6.400e-07
   Ca+2            6.399e-07   6.351e-07    -6.194    -6.197    -0.003    -18.25
   CaSO4           7.172e-11   7.172e-11   -10.144   -10.144     0.000      7.50
   CaOH+           1.056e-12   1.054e-12   -11.976   -11.977    -0.001     (0)  
   CaHSO4+         4.723e-17   4.714e-17   -16.326   -16.327    -0.001     (0)  
H(0)          1.712e-39
   H2              8.559e-40   8.559e-40   -39.068   -39.068     0.000     28.61
O(0)          1.138e-14
   O2              5.690e-15   5.690e-15   -14.245   -14.245     0.000     30.40
S(-2)         0.000e+00
   HS-             0.000e+00   0.000e+00  -123.217  -123.217    -0.001     20.57
   H2S             0.000e+00   0.000e+00  -123.276  -123.276     0.000     36.27
   S-2             0.000e+00   0.000e+00  -129.132  -129.135    -0.003     (0)  
   (H2S)2          0.000e+00   0.000e+00  -247.830  -247.830     0.000     30.09
S(6)          6.400e-07
   SO4-2           6.399e-07   6.351e-07    -6.194    -6.197    -0.003     14.44
   CaSO4           7.172e-11   7.172e-11   -10.144   -10.144     0.000      7.50
   HSO4-           6.186e-12   6.174e-12   -11.209   -11.209    -0.001     40.25
   CaHSO4+         4.723e-17   4.714e-17   -16.326   -16.327    -0.001     (0)  

------------------------------Saturation indices-------------------------------

  Phase               SI** log IAP   log K(298 K,   1 atm)

  Anhydrite        -8.12    -12.39   -4.28  CaSO4
  Gypsum           -7.81    -12.39   -4.58  CaSO4:2H2O
  H2(g)           -35.97    -39.07   -3.10  H2
  H2O(g)           -1.50     -0.00    1.50  H2O
  H2S(g)         -122.28   -130.22   -7.94  H2S
  O2(g)           -11.35    -14.24   -2.89  O2
  Sulfur          -92.24    -87.36    4.88  S

**For a gas, SI = log10(fugacity). Fugacity = pressure * phi / 1 atm.
  For ideal gases, phi = 1.

Reaction step 4.

Using solution 1.	Pure water
Using kinetics 1.	

Kinetics 1.	

	Time step: 3 seconds  (Incremented time: 7 seconds)

	Rate name       Delta Moles Total Moles   Reactant        Coefficient

	Gypsum           -2.400e-06   6.766e+01   Gypsum                    1

-----------------------------Solution composition------------------------------

	Elements           Molality       Moles

	Ca                1.120e-06   5.600e-06
	S                 1.120e-06   5.600e-06

----------------------------Description of solution----------------------------

                                       pH  =   7.000      Charge balance
                                       pe  =  -1.472      Adjusted to redox equilibrium
      Specific Conductance (µS/cm,  25°C)  = 0
                          Density (g/cm³)  =   0.99704
                               Volume (L)  =   5.01483
                        Viscosity (mPa s)  =   0.89005
                        Activity of water  =   1.000
                 Ionic strength (mol/kgw)  =   4.580e-06
                       Mass of water (kg)  =   5.000e+00
                 Total alkalinity (eq/kg)  =   1.216e-09
                         Temperature (°C)  =  25.00
                  Electrical balance (eq)  =  -6.082e-09
 Percent error, 100*(Cat-|An|)/(Cat+|An|)  =  -0.03
                               Iterations  = 161
                                  Total H  = 5.550622e+02
                                  Total O  = 2.775311e+02

----------------------------Distribution of species----------------------------

                                               Log       Log       Log    mole V
   Species          Molality    Activity  Molality  Activity     Gamma   cm³/mol

   OH-             1.015e-07   1.012e-07    -6.994    -6.995    -0.001     -4.14
   H+              1.002e-07   1.000e-07    -6.999    -7.000    -0.001      0.00
   H2O             5.551e+01   1.000e+00     1.744    -0.000     0.000     18.07
Ca            1.120e-06
   Ca+2            1.120e-06   1.109e-06    -5.951    -5.955    -0.004    -18.25
   CaSO4           2.186e-10   2.186e-10    -9.660    -9.660     0.000      7.50
   CaOH+           1.845e-12   1.840e-12   -11.734   -11.735    -0.001     (0)  
   CaHSO4+         1.440e-16   1.437e-16   -15.842   -15.843    -0.001     (0)  
H(0)          1.246e-14
   H2              6.230e-15   6.230e-15   -14.206   -14.206     0.000     28.61
O(0)          0.000e+00
   O2              0.000e+00   0.000e+00   -63.969   -63.969     0.000     30.40
S(-2)         5.574e-24
   HS-             2.977e-24   2.970e-24   -23.526   -23.527    -0.001     20.58
   H2S             2.596e-24   2.596e-24   -23.586   -23.586     0.000     36.27
   S-2             3.623e-30   3.587e-30   -29.441   -29.445    -0.004     (0)  
   (H2S)2          0.000e+00   0.000e+00   -48.449   -48.449     0.000     30.09
S(6)          1.120e-06
   SO4-2           1.120e-06   1.109e-06    -5.951    -5.955    -0.004     14.46
   CaSO4           2.186e-10   2.186e-10    -9.660    -9.660     0.000      7.50
   HSO4-           1.081e-11   1.078e-11   -10.966   -10.967    -0.001     40.25
   CaHSO4+         1.440e-16   1.437e-16   -15.842   -15.843    -0.001     (0)  

------------------------------Saturation indices-------------------------------

  Phase               SI** log IAP   log K(298 K,   1 atm)

  Anhydrite        -7.63    -11.91   -4.28  CaSO4
  Gypsum           -7.33    -11.91   -4.58  CaSO4:2H2O
  H2(g)           -11.10    -14.21   -3.10  H2
  H2O(g)           -1.50     -0.00    1.50  H2O
  H2S(g)          -22.59    -30.53   -7.94  H2S
  O2(g)           -61.08    -63.97   -2.89  O2
  Sulfur          -17.41    -12.53    4.88  S

**For a gas, SI = log10(fugacity). Fugacity = pressure * phi / 1 atm.
  For ideal gases, phi = 1.

Reaction step 5.

Using solution 1.	Pure water
Using kinetics 1.	

Kinetics 1.	

	Time step: 5 seconds  (Incremented time: 12 seconds)

	Rate name       Delta Moles Total Moles   Reactant        Coefficient

	Gypsum           -4.000e-06   6.766e+01   Gypsum                    1

-----------------------------Solution composition------------------------------

	Elements           Molality       Moles

	Ca                1.920e-06   9.600e-06
	S                 1.920e-06   9.600e-06

----------------------------Description of solution----------------------------

                                       pH  =   7.000      Charge balance
                                       pe  =  11.211      Adjusted to redox equilibrium
      Specific Conductance (µS/cm,  25°C)  = 0
                          Density (g/cm³)  =   0.99704
                               Volume (L)  =   5.01483
                        Viscosity (mPa s)  =   0.89006
                        Activity of water  =   1.000
                 Ionic strength (mol/kgw)  =   7.778e-06
                       Mass of water (kg)  =   5.000e+00
                 Total alkalinity (eq/kg)  =   1.216e-09
                         Temperature (°C)  =  25.00
                  Electrical balance (eq)  =  -6.082e-09
 Percent error, 100*(Cat-|An|)/(Cat+|An|)  =  -0.02
                               Iterations  = 172
                                  Total H  = 5.550622e+02
                                  Total O  = 2.775311e+02

----------------------------Distribution of species----------------------------

                                               Log       Log       Log    mole V
   Species          Molality    Activity  Molality  Activity     Gamma   cm³/mol

   OH-             1.016e-07   1.012e-07    -6.993    -6.995    -0.001     -4.14
   H+              1.003e-07   9.999e-08    -6.999    -7.000    -0.001      0.00
   H2O             5.551e+01   1.000e+00     1.744    -0.000     0.000     18.07
Ca            1.920e-06
   Ca+2            1.919e-06   1.894e-06    -5.717    -5.723    -0.006    -18.24
   CaSO4           6.382e-10   6.382e-10    -9.195    -9.195     0.000      7.50
   CaOH+           3.155e-12   3.144e-12   -11.501   -11.502    -0.001     (0)  
   CaHSO4+         4.209e-16   4.195e-16   -15.376   -15.377    -0.001     (0)  
H(0)          5.348e-40
   H2              2.674e-40   2.674e-40   -39.573   -39.573     0.000     28.61
O(0)          1.166e-13
   O2              5.829e-14   5.829e-14   -13.234   -13.234     0.000     30.40
S(-2)         0.000e+00
   HS-             0.000e+00   0.000e+00  -124.762  -124.764    -0.001     20.58
   H2S             0.000e+00   0.000e+00  -124.822  -124.822     0.000     36.27
   S-2             0.000e+00   0.000e+00  -130.676  -130.682    -0.006     (0)  
   (H2S)2          0.000e+00   0.000e+00  -250.922  -250.922     0.000     30.09
S(6)          1.920e-06
   SO4-2           1.919e-06   1.894e-06    -5.717    -5.723    -0.006     14.49
   CaSO4           6.382e-10   6.382e-10    -9.195    -9.195     0.000      7.50
   HSO4-           1.848e-11   1.842e-11   -10.733   -10.735    -0.001     40.25
   CaHSO4+         4.209e-16   4.195e-16   -15.376   -15.377    -0.001     (0)  

------------------------------Saturation indices-------------------------------

  Phase               SI** log IAP   log K(298 K,   1 atm)

  Anhydrite        -7.17    -11.45   -4.28  CaSO4
  Gypsum           -6.86    -11.45   -4.58  CaSO4:2H2O
  H2(g)           -36.47    -39.57   -3.10  H2
  H2O(g)           -1.50     -0.00    1.50  H2O
  H2S(g)         -123.83   -131.76   -7.94  H2S
  O2(g)           -10.34    -13.23   -2.89  O2
  Sulfur          -93.28    -88.40    4.88  S

**For a gas, SI = log10(fugacity). Fugacity = pressure * phi / 1 atm.
  For ideal gases, phi = 1.

Reaction step 6.

Using solution 1.	Pure water
Using kinetics 1.	

Kinetics 1.	

	Time step: 8 seconds  (Incremented time: 20 seconds)

	Rate name       Delta Moles Total Moles   Reactant        Coefficient

	Gypsum           -6.400e-06   6.766e+01   Gypsum                    1

-----------------------------Solution composition------------------------------

	Elements           Molality       Moles

	Ca                3.200e-06   1.600e-05
	S                 3.200e-06   1.600e-05

----------------------------Description of solution----------------------------

                                       pH  =   7.000      Charge balance
                                       pe  =  11.172      Adjusted to redox equilibrium
      Specific Conductance (µS/cm,  25°C)  = 0
                          Density (g/cm³)  =   0.99704
                               Volume (L)  =   5.01483
                        Viscosity (mPa s)  =   0.89007
                        Activity of water  =   1.000
                 Ionic strength (mol/kgw)  =   1.289e-05
                       Mass of water (kg)  =   5.000e+00
                 Total alkalinity (eq/kg)  =   1.216e-09
                         Temperature (°C)  =  25.00
                  Electrical balance (eq)  =  -6.082e-09
 Percent error, 100*(Cat-|An|)/(Cat+|An|)  =  -0.01
                               Iterations  = 208
                                  Total H  = 5.550622e+02
                                  Total O  = 2.775312e+02

----------------------------Distribution of species----------------------------

                                               Log       Log       Log    mole V
   Species          Molality    Activity  Molality  Activity     Gamma   cm³/mol

   OH-             1.017e-07   1.012e-07    -6.993    -6.995    -0.002     -4.13
   H+              1.004e-07   9.999e-08    -6.998    -7.000    -0.002      0.00
   H2O             5.551e+01   1.000e+00     1.744    -0.000     0.000     18.07
Ca            3.200e-06
   Ca+2            3.198e-06   3.145e-06    -5.495    -5.502    -0.007    -18.24
   CaSO4           1.759e-09   1.759e-09    -8.755    -8.755     0.000      7.50
   CaOH+           5.242e-12   5.220e-12   -11.281   -11.282    -0.002     (0)  
   CaHSO4+         1.161e-15   1.156e-15   -14.935   -14.937    -0.002     (0)  
H(0)          6.424e-40
   H2              3.212e-40   3.212e-40   -39.493   -39.493     0.000     28.61
O(0)          8.081e-14
   O2              4.041e-14   4.041e-14   -13.394   -13.394     0.000     30.40
S(-2)         0.000e+00
   HS-             0.000e+00   0.000e+00  -124.223  -124.225    -0.002     20.58
   H2S             0.000e+00   0.000e+00  -124.284  -124.284     0.000     36.27
   S-2             0.000e+00   0.000e+00  -130.136  -130.143    -0.007     (0)  
   (H2S)2          0.000e+00   0.000e+00  -249.846  -249.846     0.000     30.09
S(6)          3.200e-06
   SO4-2           3.198e-06   3.145e-06    -5.495    -5.502    -0.007     14.53
   CaSO4           1.759e-09   1.759e-09    -8.755    -8.755     0.000      7.50
   HSO4-           3.070e-11   3.057e-11   -10.513   -10.515    -0.002     40.25
   CaHSO4+         1.161e-15   1.156e-15   -14.935   -14.937    -0.002     (0)  

------------------------------Saturation indices-------------------------------

  Phase               SI** log IAP   log K(298 K,   1 atm)

  Anhydrite        -6.73    -11.00   -4.28  CaSO4
  Gypsum           -6.42    -11.00   -4.58  CaSO4:2H2O
  H2(g)           -36.39    -39.49   -3.10  H2
  H2O(g)           -1.50     -0.00    1.50  H2O
  H2S(g)         -123.29   -131.23   -7.94  H2S
  O2(g)           -10.50    -13.39   -2.89  O2
  Sulfur          -92.82    -87.94    4.88  S

**For a gas, SI = log10(fugacity). Fugacity = pressure * phi / 1 atm.
  For ideal gases, phi = 1.

Reaction step 7.

Using solution 1.	Pure water
Using kinetics 1.	

Kinetics 1.	

	Time step: 10 seconds  (Incremented time: 30 seconds)

	Rate name       Delta Moles Total Moles   Reactant        Coefficient

	Gypsum           -8.000e-06   6.766e+01   Gypsum                    1

-----------------------------Solution composition------------------------------

	Elements           Molality       Moles

	Ca                4.800e-06   2.400e-05
	S                 4.800e-06   2.400e-05

----------------------------Description of solution----------------------------

                                       pH  =   7.000      Charge balance
                                       pe  =  11.204      Adjusted to redox equilibrium
      Specific Conductance (µS/cm,  25°C)  = 1
                          Density (g/cm³)  =   0.99704
                               Volume (L)  =   5.01483
                        Viscosity (mPa s)  =   0.89009
                        Activity of water  =   1.000
                 Ionic strength (mol/kgw)  =   1.929e-05
                       Mass of water (kg)  =   5.000e+00
                 Total alkalinity (eq/kg)  =   1.216e-09
                         Temperature (°C)  =  25.00
                  Electrical balance (eq)  =  -6.082e-09
 Percent error, 100*(Cat-|An|)/(Cat+|An|)  =  -0.01
                               Iterations  = 254
                                  Total H  = 5.550623e+02
                                  Total O  = 2.775312e+02

----------------------------Distribution of species----------------------------

                                               Log       Log       Log    mole V
   Species          Molality    Activity  Molality  Activity     Gamma   cm³/mol

   OH-             1.018e-07   1.012e-07    -6.992    -6.995    -0.002     -4.13
   H+              1.005e-07   9.999e-08    -6.998    -7.000    -0.002      0.00
   H2O             5.551e+01   1.000e+00     1.744    -0.000     0.000     18.07
Ca            4.800e-06
   Ca+2            4.796e-06   4.699e-06    -5.319    -5.328    -0.009    -18.24
   CaSO4           3.926e-09   3.926e-09    -8.406    -8.406     0.000      7.50
   CaOH+           7.839e-12   7.799e-12   -11.106   -11.108    -0.002     (0)  
   CaHSO4+         2.594e-15   2.580e-15   -14.586   -14.588    -0.002     (0)  
H(0)          5.524e-40
   H2              2.762e-40   2.762e-40   -39.559   -39.559     0.000     28.61
O(0)          1.093e-13
   O2              5.465e-14   5.465e-14   -13.262   -13.262     0.000     30.40
S(-2)         0.000e+00
   HS-             0.000e+00   0.000e+00  -124.311  -124.313    -0.002     20.58
   H2S             0.000e+00   0.000e+00  -124.372  -124.372     0.000     36.27
   S-2             0.000e+00   0.000e+00  -130.222  -130.231    -0.009     (0)  
   (H2S)2          0.000e+00   0.000e+00  -250.021  -250.021     0.000     30.09
S(6)          4.800e-06
   SO4-2           4.796e-06   4.699e-06    -5.319    -5.328    -0.009     14.56
   CaSO4           3.926e-09   3.926e-09    -8.406    -8.406     0.000      7.50
   HSO4-           4.591e-11   4.568e-11   -10.338   -10.340    -0.002     40.25
   CaHSO4+         2.594e-15   2.580e-15   -14.586   -14.588    -0.002     (0)  

------------------------------Saturation indices-------------------------------

  Phase               SI** log IAP   log K(298 K,   1 atm)

  Anhydrite        -6.38    -10.66   -4.28  CaSO4
  Gypsum           -6.07    -10.66   -4.58  CaSO4:2H2O
  H2(g)           -36.46    -39.56   -3.10  H2
  H2O(g)           -1.50     -0.00    1.50  H2O
  H2S(g)         -123.38   -131.31   -7.94  H2S
  O2(g)           -10.37    -13.26   -2.89  O2
  Sulfur          -92.84    -87.96    4.88  S

**For a gas, SI = log10(fugacity). Fugacity = pressure * phi / 1 atm.
  For ideal gases, phi = 1.

Reaction step 8.

Using solution 1.	Pure water
Using kinetics 1.	

Kinetics 1.	

	Time step: 20 seconds  (Incremented time: 50 seconds)

	Rate name       Delta Moles Total Moles   Reactant        Coefficient

	Gypsum           -1.600e-05   6.766e+01   Gypsum                    1

-----------------------------Solution composition------------------------------

	Elements           Molality       Moles

	Ca                8.000e-06   4.000e-05
	S                 8.000e-06   4.000e-05

----------------------------Description of solution----------------------------

                                       pH  =   7.000      Charge balance
                                       pe  =  11.246      Adjusted to redox equilibrium
      Specific Conductance (µS/cm,  25°C)  = 2
                          Density (g/cm³)  =   0.99704
                               Volume (L)  =   5.01483
                        Viscosity (mPa s)  =   0.89011
                        Activity of water  =   1.000
                 Ionic strength (mol/kgw)  =   3.206e-05
                       Mass of water (kg)  =   5.000e+00
                 Total alkalinity (eq/kg)  =   1.216e-09
                         Temperature (°C)  =  25.00
                  Electrical balance (eq)  =  -6.082e-09
 Percent error, 100*(Cat-|An|)/(Cat+|An|)  =  -0.00
                               Iterations  = 425
                                  Total H  = 5.550623e+02
                                  Total O  = 2.775313e+02

----------------------------Distribution of species----------------------------

                                               Log       Log       Log    mole V
   Species          Molality    Activity  Molality  Activity     Gamma   cm³/mol

   OH-             1.019e-07   1.012e-07    -6.992    -6.995    -0.003     -4.13
   H+              1.006e-07   9.998e-08    -6.997    -7.000    -0.003      0.00
   H2O             5.551e+01   1.000e+00     1.744    -0.000     0.000     18.07
Ca            8.000e-06
   Ca+2            7.989e-06   7.782e-06    -5.097    -5.109    -0.011    -18.23
   CaSO4           1.077e-08   1.077e-08    -7.968    -7.968     0.000      7.50
   CaOH+           1.300e-11   1.292e-11   -10.886   -10.889    -0.003     (0)  
   CaHSO4+         7.123e-15   7.076e-15   -14.147   -14.150    -0.003     (0)  
H(0)          4.568e-40
   H2              2.284e-40   2.284e-40   -39.641   -39.641     0.000     28.61
O(0)          1.598e-13
   O2              7.992e-14   7.992e-14   -13.097   -13.097     0.000     30.40
S(-2)         0.000e+00
   HS-             0.000e+00   0.000e+00  -124.422  -124.424    -0.003     20.58
   H2S             0.000e+00   0.000e+00  -124.483  -124.483     0.000     36.27
   S-2             0.000e+00   0.000e+00  -130.331  -130.342    -0.011     (0)  
   (H2S)2          0.000e+00   0.000e+00  -250.244  -250.244     0.000     30.09
S(6)          8.000e-06
   SO4-2           7.989e-06   7.781e-06    -5.097    -5.109    -0.011     14.61
   CaSO4           1.077e-08   1.077e-08    -7.968    -7.968     0.000      7.50
   HSO4-           7.614e-11   7.564e-11   -10.118   -10.121    -0.003     40.25
   CaHSO4+         7.123e-15   7.076e-15   -14.147   -14.150    -0.003     (0)  

------------------------------Saturation indices-------------------------------

  Phase               SI** log IAP   log K(298 K,   1 atm)

  Anhydrite        -5.94    -10.22   -4.28  CaSO4
  Gypsum           -5.64    -10.22   -4.58  CaSO4:2H2O
  H2(g)           -36.54    -39.64   -3.10  H2
  H2O(g)           -1.50     -0.00    1.50  H2O
  H2S(g)         -123.49   -131.42   -7.94  H2S
  O2(g)           -10.20    -13.10   -2.89  O2
  Sulfur          -92.87    -87.99    4.88  S

**For a gas, SI = log10(fugacity). Fugacity = pressure * phi / 1 atm.
  For ideal gases, phi = 1.

Reaction step 9.

Using solution 1.	Pure water
Using kinetics 1.	

Kinetics 1.	

	Time step: 30 seconds  (Incremented time: 80 seconds)

	Rate name       Delta Moles Total Moles   Reactant        Coefficient

	Gypsum           -2.400e-05   6.766e+01   Gypsum                    1

-----------------------------Solution composition------------------------------

	Elements           Molality       Moles

	Ca                1.280e-05   6.400e-05
	S                 1.280e-05   6.400e-05

----------------------------Description of solution----------------------------

                                       pH  =   7.000      Charge balance
                                       pe  =  11.345      Adjusted to redox equilibrium
      Specific Conductance (µS/cm,  25°C)  = 3
                          Density (g/cm³)  =   0.99704
                               Volume (L)  =   5.01483
                        Viscosity (mPa s)  =   0.89013
                        Activity of water  =   1.000
                 Ionic strength (mol/kgw)  =   5.119e-05
                       Mass of water (kg)  =   5.000e+00
                 Total alkalinity (eq/kg)  =   1.216e-09
                         Temperature (°C)  =  25.00
                  Electrical balance (eq)  =  -6.082e-09
 Percent error, 100*(Cat-|An|)/(Cat+|An|)  =  -0.00
                               Iterations  = 624
                                  Total H  = 5.550624e+02
                                  Total O  = 2.775315e+02

----------------------------Distribution of species----------------------------

                                               Log       Log       Log    mole V
   Species          Molality    Activity  Molality  Activity     Gamma   cm³/mol

   OH-             1.021e-07   1.013e-07    -6.991    -6.995    -0.004     -4.13
   H+              1.008e-07   9.996e-08    -6.997    -7.000    -0.004      0.00
   H2O             5.551e+01   1.000e+00     1.744    -0.000     0.000     18.07
Ca            1.280e-05
   Ca+2            1.277e-05   1.236e-05    -4.894    -4.908    -0.014    -18.23
   CaSO4           2.715e-08   2.715e-08    -7.566    -7.566     0.000      7.50
   CaOH+           2.068e-11   2.051e-11   -10.684   -10.688    -0.004     (0)  
   CaHSO4+         1.799e-14   1.784e-14   -13.745   -13.749    -0.004     (0)  
H(0)          2.882e-40
   H2              1.441e-40   1.441e-40   -39.841   -39.841     0.000     28.61
O(0)          4.014e-13
   O2              2.007e-13   2.007e-13   -12.697   -12.697     0.000     30.40
S(-2)         0.000e+00
   HS-             0.000e+00   0.000e+00  -125.020  -125.023    -0.004     20.58
   H2S             0.000e+00   0.000e+00  -125.082  -125.082     0.000     36.27
   S-2             0.000e+00   0.000e+00  -130.927  -130.941    -0.014     (0)  
   (H2S)2          0.000e+00   0.000e+00  -251.442  -251.442     0.000     30.09
S(6)          1.280e-05
   SO4-2           1.277e-05   1.236e-05    -4.894    -4.908    -0.014     14.67
   CaSO4           2.715e-08   2.715e-08    -7.566    -7.566     0.000      7.50
   HSO4-           1.211e-10   1.201e-10    -9.917    -9.921    -0.004     40.25
   CaHSO4+         1.799e-14   1.784e-14   -13.745   -13.749    -0.004     (0)  

------------------------------Saturation indices-------------------------------

  Phase               SI** log IAP   log K(298 K,   1 atm)

  Anhydrite        -5.54     -9.82   -4.28  CaSO4
  Gypsum           -5.23     -9.82   -4.58  CaSO4:2H2O
  H2(g)           -36.74    -39.84   -3.10  H2
  H2O(g)           -1.50     -0.00    1.50  H2O
  H2S(g)         -124.09   -132.02   -7.94  H2S
  O2(g)            -9.81    -12.70   -2.89  O2
  Sulfur          -93.27    -88.39    4.88  S

**For a gas, SI = log10(fugacity). Fugacity = pressure * phi / 1 atm.
  For ideal gases, phi = 1.

Reaction step 10.

Using solution 1.	Pure water
Using kinetics 1.	

Kinetics 1.	

	Time step: 50 seconds  (Incremented time: 130 seconds)

	Rate name       Delta Moles Total Moles   Reactant        Coefficient

	Gypsum           -4.000e-05   6.766e+01   Gypsum                    1

-----------------------------Solution composition------------------------------

	Elements           Molality       Moles

	Ca                2.080e-05   1.040e-04
	S                 2.080e-05   1.040e-04

----------------------------Description of solution----------------------------

                                       pH  =   7.000      Charge balance
                                       pe  =  11.259      Adjusted to redox equilibrium
      Specific Conductance (µS/cm,  25°C)  = 5
                          Density (g/cm³)  =   0.99705
                               Volume (L)  =   5.01483
                        Viscosity (mPa s)  =   0.89016
                        Activity of water  =   1.000
                 Ionic strength (mol/kgw)  =   8.302e-05
                       Mass of water (kg)  =   5.000e+00
                 Total alkalinity (eq/kg)  =   1.216e-09
                         Temperature (°C)  =  25.00
                  Electrical balance (eq)  =  -6.082e-09
 Percent error, 100*(Cat-|An|)/(Cat+|An|)  =  -0.00
                               Iterations  = 1056
                                  Total H  = 5.550626e+02
                                  Total O  = 2.775317e+02

----------------------------Distribution of species----------------------------

                                               Log       Log       Log    mole V
   Species          Molality    Activity  Molality  Activity     Gamma   cm³/mol

   OH-             1.024e-07   1.013e-07    -6.990    -6.994    -0.005     -4.13
   H+              1.010e-07   9.993e-08    -6.996    -7.000    -0.005      0.00
   H2O             5.551e+01   1.000e+00     1.744    -0.000     0.000     18.07
Ca            2.080e-05
   Ca+2            2.073e-05   1.987e-05    -4.683    -4.702    -0.018    -18.22
   CaSO4           7.023e-08   7.024e-08    -7.153    -7.153     0.000      7.50
   CaOH+           3.336e-11   3.300e-11   -10.477   -10.481    -0.005     (0)  
   CaHSO4+         4.663e-14   4.614e-14   -13.331   -13.336    -0.005     (0)  
H(0)          4.289e-40
   H2              2.145e-40   2.145e-40   -39.669   -39.669     0.000     28.61
O(0)          1.813e-13
   O2              9.063e-14   9.063e-14   -13.043   -13.043     0.000     30.40
S(-2)         0.000e+00
   HS-             0.000e+00   0.000e+00  -124.122  -124.127    -0.005     20.58
   H2S             0.000e+00   0.000e+00  -124.185  -124.185     0.000     36.27
   S-2             0.000e+00   0.000e+00  -130.026  -130.044    -0.018     (0)  
   (H2S)2          0.000e+00   0.000e+00  -249.649  -249.649     0.000     30.09
S(6)          2.080e-05
   SO4-2           2.073e-05   1.987e-05    -4.683    -4.702    -0.018     14.75
   CaSO4           7.023e-08   7.024e-08    -7.153    -7.153     0.000      7.50
   HSO4-           1.951e-10   1.931e-10    -9.710    -9.714    -0.005     40.26
   CaHSO4+         4.663e-14   4.614e-14   -13.331   -13.336    -0.005     (0)  

------------------------------Saturation indices-------------------------------

  Phase               SI** log IAP   log K(298 K,   1 atm)

  Anhydrite        -5.13     -9.40   -4.28  CaSO4
  Gypsum           -4.82     -9.40   -4.58  CaSO4:2H2O
  H2(g)           -36.57    -39.67   -3.10  H2
  H2O(g)           -1.50     -0.00    1.50  H2O
  H2S(g)         -123.19   -131.13   -7.94  H2S
  O2(g)           -10.15    -13.04   -2.89  O2
  Sulfur          -92.55    -87.67    4.88  S

**For a gas, SI = log10(fugacity). Fugacity = pressure * phi / 1 atm.
  For ideal gases, phi = 1.

Reaction step 11.

Using solution 1.	Pure water
Using kinetics 1.	

Kinetics 1.	

	Time step: 80 seconds  (Incremented time: 210 seconds)

	Rate name       Delta Moles Total Moles   Reactant        Coefficient

	Gypsum           -6.400e-05   6.766e+01   Gypsum                    1

-----------------------------Solution composition------------------------------

	Elements           Molality       Moles

	Ca                3.360e-05   1.680e-04
	S                 3.360e-05   1.680e-04

----------------------------Description of solution----------------------------

                                       pH  =   7.000      Charge balance
                                       pe  =  11.322      Adjusted to redox equilibrium
      Specific Conductance (µS/cm,  25°C)  = 9
                          Density (g/cm³)  =   0.99705
                               Volume (L)  =   5.01483
                        Viscosity (mPa s)  =   0.89020
                        Activity of water  =   1.000
                 Ionic strength (mol/kgw)  =   1.338e-04
                       Mass of water (kg)  =   5.000e+00
                 Total alkalinity (eq/kg)  =   1.216e-09
                         Temperature (°C)  =  25.00
                  Electrical balance (eq)  =  -6.082e-09
 Percent error, 100*(Cat-|An|)/(Cat+|An|)  =  -0.00
                               Iterations  = 1692
                                  Total H  = 5.550628e+02
                                  Total O  = 2.775321e+02

----------------------------Distribution of species----------------------------

                                               Log       Log       Log    mole V
   Species          Molality    Activity  Molality  Activity     Gamma   cm³/mol

   OH-             1.027e-07   1.013e-07    -6.988    -6.994    -0.006     -4.13
   H+              1.012e-07   9.989e-08    -6.995    -7.000    -0.006      0.00
   H2O             5.551e+01   1.000e+00     1.744    -0.000     0.000     18.07
Ca            3.360e-05
   Ca+2            3.342e-05   3.169e-05    -4.476    -4.499    -0.023    -18.21
   CaSO4           1.785e-07   1.785e-07    -6.748    -6.748     0.000      7.50
   CaOH+           5.335e-11   5.264e-11   -10.273   -10.279    -0.006     (0)  
   CaHSO4+         1.188e-13   1.172e-13   -12.925   -12.931    -0.006     (0)  
H(0)          3.212e-40
   H2              1.606e-40   1.606e-40   -39.794   -39.794     0.000     28.61
O(0)          3.233e-13
   O2              1.617e-13   1.617e-13   -12.791   -12.791     0.000     30.40
S(-2)         0.000e+00
   HS-             0.000e+00   0.000e+00  -124.421  -124.427    -0.006     20.58
   H2S             0.000e+00   0.000e+00  -124.486  -124.486     0.000     36.27
   S-2             0.000e+00   0.000e+00  -130.321  -130.344    -0.023     (0)  
   (H2S)2          0.000e+00   0.000e+00  -250.249  -250.249     0.000     30.09
S(6)          3.360e-05
   SO4-2           3.342e-05   3.168e-05    -4.476    -4.499    -0.023     14.85
   CaSO4           1.785e-07   1.785e-07    -6.748    -6.748     0.000      7.50
   HSO4-           3.119e-10   3.077e-10    -9.506    -9.512    -0.006     40.26
   CaHSO4+         1.188e-13   1.172e-13   -12.925   -12.931    -0.006     (0)  

------------------------------Saturation indices-------------------------------

  Phase               SI** log IAP   log K(298 K,   1 atm)

  Anhydrite        -4.72     -9.00   -4.28  CaSO4
  Gypsum           -4.42     -9.00   -4.58  CaSO4:2H2O
  H2(g)           -36.69    -39.79   -3.10  H2
  H2O(g)           -1.50     -0.00    1.50  H2O
  H2S(g)         -123.49   -131.43   -7.94  H2S
  O2(g)            -9.90    -12.79   -2.89  O2
  Sulfur          -92.72    -87.84    4.88  S

**For a gas, SI = log10(fugacity). Fugacity = pressure * phi / 1 atm.
  For ideal gases, phi = 1.

Reaction step 12.

Using solution 1.	Pure water
Using kinetics 1.	

Kinetics 1.	

	Time step: 100 seconds  (Incremented time: 310 seconds)

	Rate name       Delta Moles Total Moles   Reactant        Coefficient

	Gypsum           -8.000e-05   6.766e+01   Gypsum                    1

-----------------------------Solution composition------------------------------

	Elements           Molality       Moles

	Ca                4.960e-05   2.480e-04
	S                 4.960e-05   2.480e-04

----------------------------Description of solution----------------------------

                                       pH  =   7.001      Charge balance
                                       pe  =  11.342      Adjusted to redox equilibrium
      Specific Conductance (µS/cm,  25°C)  = 13
                          Density (g/cm³)  =   0.99705
                               Volume (L)  =   5.01484
                        Viscosity (mPa s)  =   0.89025
                        Activity of water  =   1.000
                 Ionic strength (mol/kgw)  =   1.970e-04
                       Mass of water (kg)  =   5.000e+00
                 Total alkalinity (eq/kg)  =   1.216e-09
                         Temperature (°C)  =  25.00
                  Electrical balance (eq)  =  -6.082e-09
 Percent error, 100*(Cat-|An|)/(Cat+|An|)  =  -0.00
                               Iterations  = 2112
                                  Total H  = 5.550632e+02
                                  Total O  = 2.775326e+02

----------------------------Distribution of species----------------------------

                                               Log       Log       Log    mole V
   Species          Molality    Activity  Molality  Activity     Gamma   cm³/mol

   OH-             1.030e-07   1.014e-07    -6.987    -6.994    -0.007     -4.12
   H+              1.014e-07   9.984e-08    -6.994    -7.001    -0.007      0.00
   H2O             5.551e+01   1.000e+00     1.744    -0.000     0.000     18.07
Ca            4.960e-05
   Ca+2            4.922e-05   4.615e-05    -4.308    -4.336    -0.028    -18.20
   CaSO4           3.787e-07   3.787e-07    -6.422    -6.422     0.000      7.50
   CaOH+           7.796e-11   7.671e-11   -10.108   -10.115    -0.007     (0)  
   CaHSO4+         2.526e-13   2.486e-13   -12.598   -12.605    -0.007     (0)  
H(0)          2.920e-40
   H2              1.460e-40   1.460e-40   -39.836   -39.836     0.000     28.61
O(0)          3.910e-13
   O2              1.955e-13   1.955e-13   -12.709   -12.709     0.000     30.40
S(-2)         0.000e+00
   HS-             0.000e+00   0.000e+00  -124.422  -124.429    -0.007     20.59
   H2S             0.000e+00   0.000e+00  -124.488  -124.488     0.000     36.27
   S-2             0.000e+00   0.000e+00  -130.318  -130.346    -0.028     (0)  
   (H2S)2          0.000e+00   0.000e+00  -250.254  -250.254     0.000     30.09
S(6)          4.960e-05
   SO4-2           4.922e-05   4.615e-05    -4.308    -4.336    -0.028     14.95
   CaSO4           3.787e-07   3.787e-07    -6.422    -6.422     0.000      7.50
   HSO4-           4.553e-10   4.480e-10    -9.342    -9.349    -0.007     40.26
   CaHSO4+         2.526e-13   2.486e-13   -12.598   -12.605    -0.007     (0)  

------------------------------Saturation indices-------------------------------

  Phase               SI** log IAP   log K(298 K,   1 atm)

  Anhydrite        -4.39     -8.67   -4.28  CaSO4
  Gypsum           -4.09     -8.67   -4.58  CaSO4:2H2O
  H2(g)           -36.73    -39.84   -3.10  H2
  H2O(g)           -1.50     -0.00    1.50  H2O
  H2S(g)         -123.49   -131.43   -7.94  H2S
  O2(g)            -9.82    -12.71   -2.89  O2
  Sulfur          -92.68    -87.80    4.88  S

**For a gas, SI = log10(fugacity). Fugacity = pressure * phi / 1 atm.
  For ideal gases, phi = 1.

Reaction step 13.

Using solution 1.	Pure water
Using kinetics 1.	

Kinetics 1.	

	Time step: 200 seconds  (Incremented time: 510 seconds)

	Rate name       Delta Moles Total Moles   Reactant        Coefficient

	Gypsum           -1.600e-04   6.766e+01   Gypsum                    1

-----------------------------Solution composition------------------------------

	Elements           Molality       Moles

	Ca                8.159e-05   4.080e-04
	S                 8.159e-05   4.080e-04

----------------------------Description of solution----------------------------

                                       pH  =   7.001      Charge balance
                                       pe  =  11.385      Adjusted to redox equilibrium
      Specific Conductance (µS/cm,  25°C)  = 21
                          Density (g/cm³)  =   0.99705
                               Volume (L)  =   5.01484
                        Viscosity (mPa s)  =   0.89032
                        Activity of water  =   1.000
                 Ionic strength (mol/kgw)  =   3.226e-04
                       Mass of water (kg)  =   5.000e+00
                 Total alkalinity (eq/kg)  =   1.216e-09
                         Temperature (°C)  =  25.00
                  Electrical balance (eq)  =  -6.082e-09
 Percent error, 100*(Cat-|An|)/(Cat+|An|)  =  -0.00
                               Iterations  = 4248
                                  Total H  = 5.550638e+02
                                  Total O  = 2.775335e+02

----------------------------Distribution of species----------------------------

                                               Log       Log       Log    mole V
   Species          Molality    Activity  Molality  Activity     Gamma   cm³/mol

   OH-             1.036e-07   1.015e-07    -6.985    -6.994    -0.009     -4.12
   H+              1.018e-07   9.975e-08    -6.992    -7.001    -0.009      0.00
   H2O             5.551e+01   1.000e+00     1.744    -0.000     0.000     18.07
Ca            8.159e-05
   Ca+2            8.061e-05   7.428e-05    -4.094    -4.129    -0.036    -18.19
   CaSO4           9.809e-07   9.810e-07    -6.008    -6.008     0.000      7.50
   CaOH+           1.262e-10   1.236e-10    -9.899    -9.908    -0.009     (0)  
   CaHSO4+         6.566e-13   6.432e-13   -12.183   -12.192    -0.009     (0)  
H(0)          2.392e-40
   H2              1.196e-40   1.196e-40   -39.922   -39.922     0.000     28.61
O(0)          5.827e-13
   O2              2.913e-13   2.914e-13   -12.536   -12.536     0.000     30.40
S(-2)         0.000e+00
   HS-             0.000e+00   0.000e+00  -124.560  -124.569    -0.009     20.59
   H2S             0.000e+00   0.000e+00  -124.629  -124.629     0.000     36.27
   S-2             0.000e+00   0.000e+00  -130.450  -130.486    -0.036     (0)  
   (H2S)2          0.000e+00   0.000e+00  -250.535  -250.535     0.000     30.09
S(6)          8.159e-05
   SO4-2           8.061e-05   7.427e-05    -4.094    -4.129    -0.036     15.09
   CaSO4           9.809e-07   9.810e-07    -6.008    -6.008     0.000      7.50
   HSO4-           7.352e-10   7.202e-10    -9.134    -9.143    -0.009     40.26
   CaHSO4+         6.566e-13   6.432e-13   -12.183   -12.192    -0.009     (0)  

------------------------------Saturation indices-------------------------------

  Phase               SI** log IAP   log K(298 K,   1 atm)

  Anhydrite        -3.98     -8.26   -4.28  CaSO4
  Gypsum           -3.68     -8.26   -4.58  CaSO4:2H2O
  H2(g)           -36.82    -39.92   -3.10  H2
  H2O(g)           -1.50     -0.00    1.50  H2O
  H2S(g)         -123.63   -131.57   -7.94  H2S
  O2(g)            -9.64    -12.54   -2.89  O2
  Sulfur          -92.74    -87.86    4.88  S

**For a gas, SI = log10(fugacity). Fugacity = pressure * phi / 1 atm.
  For ideal gases, phi = 1.

Reaction step 14.

Using solution 1.	Pure water
Using kinetics 1.	

Kinetics 1.	

	Time step: 300 seconds  (Incremented time: 810 seconds)

	Rate name       Delta Moles Total Moles   Reactant        Coefficient

	Gypsum           -2.399e-04   6.766e+01   Gypsum                    1

-----------------------------Solution composition------------------------------

	Elements           Molality       Moles

	Ca                1.296e-04   6.479e-04
	S                 1.296e-04   6.479e-04

----------------------------Description of solution----------------------------

                                       pH  =   7.002      Charge balance
                                       pe  =  11.323      Adjusted to redox equilibrium
      Specific Conductance (µS/cm,  25°C)  = 34
                          Density (g/cm³)  =   0.99706
                               Volume (L)  =   5.01485
                        Viscosity (mPa s)  =   0.89041
                        Activity of water  =   1.000
                 Ionic strength (mol/kgw)  =   5.090e-04
                       Mass of water (kg)  =   5.000e+00
                 Total alkalinity (eq/kg)  =   1.216e-09
                         Temperature (°C)  =  25.00
                  Electrical balance (eq)  =  -6.082e-09
 Percent error, 100*(Cat-|An|)/(Cat+|An|)  =  -0.00
                               Iterations  = 6352
                                  Total H  = 5.550648e+02
                                  Total O  = 2.775350e+02

----------------------------Distribution of species----------------------------

                                               Log       Log       Log    mole V
   Species          Molality    Activity  Molality  Activity     Gamma   cm³/mol

   OH-             1.043e-07   1.016e-07    -6.982    -6.993    -0.011     -4.12
   H+              1.021e-07   9.961e-08    -6.991    -7.002    -0.011      0.00
   H2O             5.551e+01   1.000e+00     1.744    -0.000     0.000     18.07
Ca            1.296e-04
   Ca+2            1.272e-04   1.149e-04    -3.895    -3.940    -0.044    -18.17
   CaSO4           2.347e-06   2.347e-06    -5.630    -5.630     0.000      7.50
   CaOH+           1.964e-10   1.914e-10    -9.707    -9.718    -0.011     (0)  
   CaHSO4+         1.577e-12   1.537e-12   -11.802   -11.813    -0.011     (0)  
H(0)          3.172e-40
   H2              1.586e-40   1.586e-40   -39.800   -39.800     0.000     28.61
O(0)          3.314e-13
   O2              1.657e-13   1.657e-13   -12.781   -12.781     0.000     30.40
S(-2)         0.000e+00
   HS-             0.000e+00   0.000e+00  -123.879  -123.890    -0.011     20.59
   H2S             0.000e+00   0.000e+00  -123.950  -123.950     0.000     36.27
   S-2             0.000e+00   0.000e+00  -129.762  -129.807    -0.044     (0)  
   (H2S)2          0.000e+00   0.000e+00  -249.179  -249.179     0.000     30.09
S(6)          1.296e-04
   SO4-2           1.272e-04   1.149e-04    -3.895    -3.940    -0.044     15.27
   CaSO4           2.347e-06   2.347e-06    -5.630    -5.630     0.000      7.50
   HSO4-           1.141e-09   1.112e-09    -8.943    -8.954    -0.011     40.27
   CaHSO4+         1.577e-12   1.537e-12   -11.802   -11.813    -0.011     (0)  

------------------------------Saturation indices-------------------------------

  Phase               SI** log IAP   log K(298 K,   1 atm)

  Anhydrite        -3.60     -7.88   -4.28  CaSO4
  Gypsum           -3.30     -7.88   -4.58  CaSO4:2H2O
  H2(g)           -36.70    -39.80   -3.10  H2
  H2O(g)           -1.50     -0.00    1.50  H2O
  H2S(g)         -122.96   -130.89   -7.94  H2S
  O2(g)            -9.89    -12.78   -2.89  O2
  Sulfur          -92.18    -87.30    4.88  S

**For a gas, SI = log10(fugacity). Fugacity = pressure * phi / 1 atm.
  For ideal gases, phi = 1.

Reaction step 15.

Using solution 1.	Pure water
Using kinetics 1.	

Kinetics 1.	

	Time step: 500 seconds  (Incremented time: 1310 seconds)

	Rate name       Delta Moles Total Moles   Reactant        Coefficient

	Gypsum           -3.997e-04   6.766e+01   Gypsum                    1

-----------------------------Solution composition------------------------------

	Elements           Molality       Moles

	Ca                2.095e-04   1.048e-03
	S                 2.095e-04   1.048e-03

----------------------------Description of solution----------------------------

                                       pH  =   7.003      Charge balance
                                       pe  =  11.410      Adjusted to redox equilibrium
      Specific Conductance (µS/cm,  25°C)  = 54
                          Density (g/cm³)  =   0.99707
                               Volume (L)  =   5.01486
                        Viscosity (mPa s)  =   0.89054
                        Activity of water  =   1.000
                 Ionic strength (mol/kgw)  =   8.153e-04
                       Mass of water (kg)  =   5.000e+00
                 Total alkalinity (eq/kg)  =   1.216e-09
                         Temperature (°C)  =  25.00
                  Electrical balance (eq)  =  -6.082e-09
 Percent error, 100*(Cat-|An|)/(Cat+|An|)  =  -0.00
                               Iterations  = 9543
                                  Total H  = 5.550664e+02
                                  Total O  = 2.775374e+02

----------------------------Distribution of species----------------------------

                                               Log       Log       Log    mole V
   Species          Molality    Activity  Molality  Activity     Gamma   cm³/mol

   OH-             1.052e-07   1.018e-07    -6.978    -6.992    -0.014     -4.11
   H+              1.025e-07   9.938e-08    -6.989    -7.003    -0.013      0.00
   H2O             5.551e+01   1.000e+00     1.744    -0.000     0.000     18.07
Ca            2.095e-04
   Ca+2            2.038e-04   1.793e-04    -3.691    -3.746    -0.056    -18.15
   CaSO4           5.716e-06   5.717e-06    -5.243    -5.243     0.000      7.50
   CaOH+           3.093e-10   2.995e-10    -9.510    -9.524    -0.014     (0)  
   CaHSO4+         3.858e-12   3.735e-12   -11.414   -11.428    -0.014     (0)  
H(0)          2.115e-40
   H2              1.058e-40   1.058e-40   -39.976   -39.976     0.000     28.61
O(0)          7.450e-13
   O2              3.725e-13   3.726e-13   -12.429   -12.429     0.000     30.40
S(-2)         0.000e+00
   HS-             0.000e+00   0.000e+00  -124.388  -124.402    -0.014     20.60
   H2S             0.000e+00   0.000e+00  -124.463  -124.463     0.000     36.27
   S-2             0.000e+00   0.000e+00  -130.261  -130.317    -0.056     (0)  
   (H2S)2          0.000e+00   0.000e+00  -250.204  -250.204     0.000     30.09
S(6)          2.095e-04
   SO4-2           2.038e-04   1.793e-04    -3.691    -3.746    -0.056     15.48
   CaSO4           5.716e-06   5.717e-06    -5.243    -5.243     0.000      7.50
   HSO4-           1.789e-09   1.732e-09    -8.747    -8.761    -0.014     40.27
   CaHSO4+         3.858e-12   3.735e-12   -11.414   -11.428    -0.014     (0)  

------------------------------Saturation indices-------------------------------

  Phase               SI** log IAP   log K(298 K,   1 atm)

  Anhydrite        -3.22     -7.49   -4.28  CaSO4
  Gypsum           -2.91     -7.49   -4.58  CaSO4:2H2O
  H2(g)           -36.87    -39.98   -3.10  H2
  H2O(g)           -1.50     -0.00    1.50  H2O
  H2S(g)         -123.47   -131.40   -7.94  H2S
  O2(g)            -9.54    -12.43   -2.89  O2
  Sulfur          -92.52    -87.64    4.88  S

**For a gas, SI = log10(fugacity). Fugacity = pressure * phi / 1 atm.
  For ideal gases, phi = 1.

Reaction step 16.

Using solution 1.	Pure water
Using kinetics 1.	

Kinetics 1.	

	Time step: 800 seconds  (Incremented time: 2110 seconds)

	Rate name       Delta Moles Total Moles   Reactant        Coefficient

	Gypsum           -6.387e-04   6.766e+01   Gypsum                    1

-----------------------------Solution composition------------------------------

	Elements           Molality       Moles

	Ca                3.372e-04   1.686e-03
	S                 3.372e-04   1.686e-03

----------------------------Description of solution----------------------------

                                       pH  =   7.004      Charge balance
                                       pe  =  11.443      Adjusted to redox equilibrium
      Specific Conductance (µS/cm,  25°C)  = 85
                          Density (g/cm³)  =   0.99709
                               Volume (L)  =   5.01489
                        Viscosity (mPa s)  =   0.89072
                        Activity of water  =   1.000
                 Ionic strength (mol/kgw)  =   1.295e-03
                       Mass of water (kg)  =   5.000e+00
                 Total alkalinity (eq/kg)  =   1.216e-09
                         Temperature (°C)  =  25.00
                  Electrical balance (eq)  =  -6.082e-09
 Percent error, 100*(Cat-|An|)/(Cat+|An|)  =  -0.00
                               Iterations  = 14182
                                  Total H  = 5.550689e+02
                                  Total O  = 2.775412e+02

----------------------------Distribution of species----------------------------

                                               Log       Log       Log    mole V
   Species          Molality    Activity  Molality  Activity     Gamma   cm³/mol

   OH-             1.064e-07   1.022e-07    -6.973    -6.991    -0.018     -4.10
   H+              1.029e-07   9.905e-08    -6.988    -7.004    -0.017      0.00
   H2O             5.551e+01   1.000e+00     1.744    -0.000     0.000     18.07
Ca            3.372e-04
   Ca+2            3.237e-04   2.761e-04    -3.490    -3.559    -0.069    -18.13
   CaSO4           1.354e-05   1.355e-05    -4.868    -4.868     0.000      7.50
   CaOH+           4.816e-10   4.626e-10    -9.317    -9.335    -0.018     (0)  
   CaHSO4+         9.183e-12   8.820e-12   -11.037   -11.055    -0.018     (0)  
H(0)          0.000e+00
   H2              0.000e+00   0.000e+00   -40.045   -40.045     0.000     28.61
O(0)          1.025e-12
   O2              5.126e-13   5.127e-13   -12.290   -12.290     0.000     30.40
S(-2)         0.000e+00
   HS-             0.000e+00   0.000e+00  -124.476  -124.493    -0.018     20.61
   H2S             0.000e+00   0.000e+00  -124.556  -124.556     0.000     36.27
   S-2             0.000e+00   0.000e+00  -130.338  -130.407    -0.069     (0)  
   (H2S)2          0.000e+00   0.000e+00  -250.390  -250.390     0.000     30.09
S(6)          3.372e-04
   SO4-2           3.237e-04   2.759e-04    -3.490    -3.559    -0.069     15.75
   CaSO4           1.354e-05   1.355e-05    -4.868    -4.868     0.000      7.50
   HSO4-           2.766e-09   2.657e-09    -8.558    -8.576    -0.018     40.28
   CaHSO4+         9.183e-12   8.820e-12   -11.037   -11.055    -0.018     (0)  

------------------------------Saturation indices-------------------------------

  Phase               SI** log IAP   log K(298 K,   1 atm)

  Anhydrite        -2.84     -7.12   -4.28  CaSO4
  Gypsum           -2.54     -7.12   -4.58  CaSO4:2H2O
  H2(g)           -36.94    -40.04   -3.10  H2
  H2O(g)           -1.50     -0.00    1.50  H2O
  H2S(g)         -123.56   -131.50   -7.94  H2S
  O2(g)            -9.40    -12.29   -2.89  O2
  Sulfur          -92.54    -87.66    4.88  S

**For a gas, SI = log10(fugacity). Fugacity = pressure * phi / 1 atm.
  For ideal gases, phi = 1.

Reaction step 17.

Using solution 1.	Pure water
Using kinetics 1.	

Kinetics 1.	

	Time step: 1000 seconds  (Incremented time: 3110 seconds)

	Rate name       Delta Moles Total Moles   Reactant        Coefficient

	Gypsum           -7.966e-04   6.766e+01   Gypsum                    1

-----------------------------Solution composition------------------------------

	Elements           Molality       Moles

	Ca                4.966e-04   2.483e-03
	S                 4.966e-04   2.483e-03

----------------------------Description of solution----------------------------

                                       pH  =   7.006      Charge balance
                                       pe  =  11.450      Adjusted to redox equilibrium
      Specific Conductance (µS/cm,  25°C)  = 122
                          Density (g/cm³)  =   0.99711
                               Volume (L)  =   5.01491
                        Viscosity (mPa s)  =   0.89091
                        Activity of water  =   1.000
                 Ionic strength (mol/kgw)  =   1.879e-03
                       Mass of water (kg)  =   5.000e+00
                 Total alkalinity (eq/kg)  =   1.216e-09
                         Temperature (°C)  =  25.00
                  Electrical balance (eq)  =  -6.082e-09
 Percent error, 100*(Cat-|An|)/(Cat+|An|)  =  -0.00
                               Iterations  = 16391
                                  Total H  = 5.550721e+02
                                  Total O  = 2.775460e+02

----------------------------Distribution of species----------------------------

                                               Log       Log       Log    mole V
   Species          Molality    Activity  Molality  Activity     Gamma   cm³/mol

   OH-             1.077e-07   1.026e-07    -6.968    -6.989    -0.021     -4.10
   H+              1.032e-07   9.867e-08    -6.986    -7.006    -0.020      0.00
   H2O             5.551e+01   1.000e+00     1.744    -0.000     0.000     18.07
Ca            4.966e-04
   Ca+2            4.697e-04   3.887e-04    -3.328    -3.410    -0.082    -18.10
   CaSO4           2.683e-05   2.684e-05    -4.571    -4.571     0.000      7.50
   CaOH+           6.860e-10   6.538e-10    -9.164    -9.185    -0.021     (0)  
   CaHSO4+         1.827e-11   1.741e-11   -10.738   -10.759    -0.021     (0)  
H(0)          0.000e+00
   H2              0.000e+00   0.000e+00   -40.061   -40.061     0.000     28.61
O(0)          1.103e-12
   O2              5.513e-13   5.515e-13   -12.259   -12.258     0.000     30.40
S(-2)         0.000e+00
   HS-             0.000e+00   0.000e+00  -124.389  -124.410    -0.021     20.61
   H2S             0.000e+00   0.000e+00  -124.474  -124.474     0.000     36.27
   S-2             0.000e+00   0.000e+00  -130.239  -130.322    -0.083     (0)  
   (H2S)2          0.000e+00   0.000e+00  -250.226  -250.226     0.000     30.09
S(6)          4.966e-04
   SO4-2           4.697e-04   3.883e-04    -3.328    -3.411    -0.083     16.01
   CaSO4           2.683e-05   2.684e-05    -4.571    -4.571     0.000      7.50
   HSO4-           3.909e-09   3.725e-09    -8.408    -8.429    -0.021     40.29
   CaHSO4+         1.827e-11   1.741e-11   -10.738   -10.759    -0.021     (0)  

------------------------------Saturation indices-------------------------------

  Phase               SI** log IAP   log K(298 K,   1 atm)

  Anhydrite        -2.54     -6.82   -4.28  CaSO4
  Gypsum           -2.24     -6.82   -4.58  CaSO4:2H2O
  H2(g)           -36.96    -40.06   -3.10  H2
  H2O(g)           -1.50     -0.00    1.50  H2O
  H2S(g)         -123.48   -131.42   -7.94  H2S
  O2(g)            -9.37    -12.26   -2.89  O2
  Sulfur          -92.45    -87.56    4.88  S

**For a gas, SI = log10(fugacity). Fugacity = pressure * phi / 1 atm.
  For ideal gases, phi = 1.

Reaction step 18.

Using solution 1.	Pure water
Using kinetics 1.	

Kinetics 1.	

	Time step: 2000 seconds  (Incremented time: 5110 seconds)

	Rate name       Delta Moles Total Moles   Reactant        Coefficient

	Gypsum           -1.585e-03   6.765e+01   Gypsum                    1

-----------------------------Solution composition------------------------------

	Elements           Molality       Moles

	Ca                8.135e-04   4.068e-03
	S                 8.135e-04   4.068e-03

----------------------------Description of solution----------------------------

                                       pH  =   7.009      Charge balance
                                       pe  =  11.488      Adjusted to redox equilibrium
      Specific Conductance (µS/cm,  25°C)  = 194
                          Density (g/cm³)  =   0.99715
                               Volume (L)  =   5.01497
                        Viscosity (mPa s)  =   0.89124
                        Activity of water  =   1.000
                 Ionic strength (mol/kgw)  =   3.004e-03
                       Mass of water (kg)  =   5.000e+00
                 Total alkalinity (eq/kg)  =   1.216e-09
                         Temperature (°C)  =  25.00
                  Electrical balance (eq)  =  -6.187e-09
 Percent error, 100*(Cat-|An|)/(Cat+|An|)  =  -0.00
                               Iterations  = 25074
                                  Total H  = 5.550784e+02
                                  Total O  = 2.775555e+02

----------------------------Distribution of species----------------------------

                                               Log       Log       Log    mole V
   Species          Molality    Activity  Molality  Activity     Gamma   cm³/mol

   OH-             1.097e-07   1.033e-07    -6.960    -6.986    -0.026     -4.08
   H+              1.036e-07   9.798e-08    -6.985    -7.009    -0.024      0.00
   H2O             5.551e+01   1.000e+00     1.744    -0.000     0.000     18.07
Ca            8.135e-04
   Ca+2            7.510e-04   5.937e-04    -3.124    -3.226    -0.102    -18.06
   CaSO4           6.254e-05   6.259e-05    -4.204    -4.204     0.000      7.50
   CaOH+           1.068e-09   1.006e-09    -8.972    -8.998    -0.026     (0)  
   CaHSO4+         4.280e-11   4.031e-11   -10.369   -10.395    -0.026     (0)  
H(0)          0.000e+00
   H2              0.000e+00   0.000e+00   -40.145   -40.144     0.000     28.61
O(0)          1.621e-12
   O2              8.103e-13   8.108e-13   -12.091   -12.091     0.000     30.40
S(-2)         0.000e+00
   HS-             0.000e+00   0.000e+00  -124.537  -124.564    -0.026     20.62
   H2S             0.000e+00   0.000e+00  -124.631  -124.631     0.000     36.27
   S-2             0.000e+00   0.000e+00  -130.370  -130.473    -0.103     (0)  
   (H2S)2          0.000e+00   0.000e+00  -250.540  -250.540     0.000     30.09
S(6)          8.135e-04
   SO4-2           7.510e-04   5.928e-04    -3.124    -3.227    -0.103     16.40
   CaSO4           6.254e-05   6.259e-05    -4.204    -4.204     0.000      7.50
   HSO4-           5.996e-09   5.647e-09    -8.222    -8.248    -0.026     40.30
   CaHSO4+         4.280e-11   4.031e-11   -10.369   -10.395    -0.026     (0)  

------------------------------Saturation indices-------------------------------

  Phase               SI** log IAP   log K(298 K,   1 atm)

  Anhydrite        -2.18     -6.45   -4.28  CaSO4
  Gypsum           -1.87     -6.45   -4.58  CaSO4:2H2O
  H2(g)           -37.04    -40.14   -3.10  H2
  H2O(g)           -1.50     -0.00    1.50  H2O
  H2S(g)         -123.64   -131.57   -7.94  H2S
  O2(g)            -9.20    -12.09   -2.89  O2
  Sulfur          -92.52    -87.64    4.88  S

**For a gas, SI = log10(fugacity). Fugacity = pressure * phi / 1 atm.
  For ideal gases, phi = 1.

Reaction step 19.

Using solution 1.	Pure water
Using kinetics 1.	

Kinetics 1.	

	Time step: 3000 seconds  (Incremented time: 8110 seconds)

	Rate name       Delta Moles Total Moles   Reactant        Coefficient

	Gypsum           -2.350e-03   6.765e+01   Gypsum                    1

-----------------------------Solution composition------------------------------

	Elements           Molality       Moles

	Ca                1.284e-03   6.418e-03
	S                 1.284e-03   6.418e-03

----------------------------Description of solution----------------------------

                                       pH  =   7.013      Charge balance
                                       pe  =  11.477      Adjusted to redox equilibrium
      Specific Conductance (µS/cm,  25°C)  = 294
                          Density (g/cm³)  =   0.99722
                               Volume (L)  =   5.01506
                        Viscosity (mPa s)  =   0.89166
                        Activity of water  =   1.000
                 Ionic strength (mol/kgw)  =   4.603e-03
                       Mass of water (kg)  =   5.000e+00
                 Total alkalinity (eq/kg)  =   1.216e-09
                         Temperature (°C)  =  25.00
                  Electrical balance (eq)  =  -6.492e-09
 Percent error, 100*(Cat-|An|)/(Cat+|An|)  =  -0.00
                               Iterations  = 31331
                                  Total H  = 5.550878e+02
                                  Total O  = 2.775696e+02

----------------------------Distribution of species----------------------------

                                               Log       Log       Log    mole V
   Species          Molality    Activity  Molality  Activity     Gamma   cm³/mol

   OH-             1.122e-07   1.042e-07    -6.950    -6.982    -0.032     -4.07
   H+              1.038e-07   9.709e-08    -6.984    -7.013    -0.029      0.00
   H2O             5.551e+01   1.000e+00     1.744    -0.000     0.000     18.07
Ca            1.284e-03
   Ca+2            1.151e-03   8.654e-04    -2.939    -3.063    -0.124    -18.02
   CaSO4           1.328e-04   1.329e-04    -3.877    -3.876     0.000      7.50
   CaOH+           1.591e-09   1.479e-09    -8.798    -8.830    -0.032     (0)  
   CaHSO4+         9.124e-11   8.482e-11   -10.040   -10.072    -0.032     (0)  
H(0)          0.000e+00
   H2              0.000e+00   0.000e+00   -40.131   -40.130     0.000     28.61
O(0)          1.517e-12
   O2              7.584e-13   7.592e-13   -12.120   -12.120     0.000     30.40
S(-2)         0.000e+00
   HS-             0.000e+00   0.000e+00  -124.315  -124.347    -0.032     20.64
   H2S             0.000e+00   0.000e+00  -124.419  -124.418     0.000     36.27
   S-2             0.000e+00   0.000e+00  -130.128  -130.252    -0.125     (0)  
   (H2S)2          0.000e+00   0.000e+00  -250.115  -250.115     0.000     30.09
S(6)          1.284e-03
   SO4-2           1.151e-03   8.635e-04    -2.939    -3.064    -0.125     16.84
   CaSO4           1.328e-04   1.329e-04    -3.877    -3.876     0.000      7.50
   HSO4-           8.769e-09   8.152e-09    -8.057    -8.089    -0.032     40.31
   CaHSO4+         9.124e-11   8.482e-11   -10.040   -10.072    -0.032     (0)  

------------------------------Saturation indices-------------------------------

  Phase               SI** log IAP   log K(298 K,   1 atm)

  Anhydrite        -1.85     -6.13   -4.28  CaSO4
  Gypsum           -1.54     -6.13   -4.58  CaSO4:2H2O
  H2(g)           -37.03    -40.13   -3.10  H2
  H2O(g)           -1.50     -0.00    1.50  H2O
  H2S(g)         -123.42   -131.36   -7.94  H2S
  O2(g)            -9.23    -12.12   -2.89  O2
  Sulfur          -92.32    -87.44    4.88  S

**For a gas, SI = log10(fugacity). Fugacity = pressure * phi / 1 atm.
  For ideal gases, phi = 1.

Reaction step 20.

Using solution 1.	Pure water
Using kinetics 1.	

Kinetics 1.	

	Time step: 5000 seconds  (Incremented time: 13110 seconds)

	Rate name       Delta Moles Total Moles   Reactant        Coefficient

	Gypsum           -3.825e-03   6.765e+01   Gypsum                    1

-----------------------------Solution composition------------------------------

	Elements           Molality       Moles

	Ca                2.049e-03   1.024e-02
	S                 2.049e-03   1.024e-02

----------------------------Description of solution----------------------------

                                       pH  =   7.018      Charge balance
                                       pe  =  11.534      Adjusted to redox equilibrium
      Specific Conductance (µS/cm,  25°C)  = 447
                          Density (g/cm³)  =   0.99732
                               Volume (L)  =   5.01520
                        Viscosity (mPa s)  =   0.89224
                        Activity of water  =   1.000
                 Ionic strength (mol/kgw)  =   7.081e-03
                       Mass of water (kg)  =   5.000e+00
                 Total alkalinity (eq/kg)  =   1.216e-09
                         Temperature (°C)  =  25.00
                  Electrical balance (eq)  =  -6.944e-09
 Percent error, 100*(Cat-|An|)/(Cat+|An|)  =  -0.00
                               Iterations  = 50994
                                  Total H  = 5.551031e+02
                                  Total O  = 2.775925e+02

----------------------------Distribution of species----------------------------

                                               Log       Log       Log    mole V
   Species          Molality    Activity  Molality  Activity     Gamma   cm³/mol

   OH-             1.155e-07   1.056e-07    -6.937    -6.976    -0.039     -4.05
   H+              1.038e-07   9.587e-08    -6.984    -7.018    -0.034      0.00
   H2O             5.551e+01   9.999e-01     1.744    -0.000     0.000     18.07
Ca            2.049e-03
   Ca+2            1.770e-03   1.254e-03    -2.752    -2.902    -0.150    -17.97
   CaSO4           2.783e-04   2.788e-04    -3.555    -3.555     0.001      7.50
   CaOH+           2.372e-09   2.171e-09    -8.625    -8.663    -0.039     (0)  
   CaHSO4+         1.920e-10   1.757e-10    -9.717    -9.755    -0.039     (0)  
H(0)          0.000e+00
   H2              0.000e+00   0.000e+00   -40.255   -40.254     0.001     28.61
O(0)          2.686e-12
   O2              1.343e-12   1.345e-12   -11.872   -11.871     0.001     30.40
S(-2)         0.000e+00
   HS-             0.000e+00   0.000e+00  -124.650  -124.689    -0.039     20.65
   H2S             0.000e+00   0.000e+00  -124.766  -124.766     0.001     36.27
[...]

  Phase               SI** log IAP   log K(298 K,   1 atm)

  Anhydrite        -1.01     -5.29   -4.28  CaSO4
  Gypsum           -0.70     -5.29   -4.58  CaSO4:2H2O
  H2(g)           -37.07    -40.17   -3.10  H2
  H2O(g)           -1.50     -0.00    1.50  H2O
  H2S(g)         -123.19   -131.13   -7.94  H2S
  O2(g)            -9.15    -12.04   -2.89  O2
  Sulfur          -92.05    -87.17    4.88  S

**For a gas, SI = log10(fugacity). Fugacity = pressure * phi / 1 atm.
  For ideal gases, phi = 1.

Reaction step 23.

Using solution 1.	Pure water
Using kinetics 1.	

Kinetics 1.	

	Time step: 20000 seconds  (Incremented time: 51110 seconds)

	Rate name       Delta Moles Total Moles   Reactant        Coefficient

	Gypsum           -1.158e-02   6.762e+01   Gypsum                    1

-----------------------------Solution composition------------------------------

	Elements           Molality       Moles

	Ca                6.877e-03   3.439e-02
	S                 6.877e-03   3.439e-02

----------------------------Description of solution----------------------------

                                       pH  =   7.042      Charge balance
                                       pe  =  11.481      Adjusted to redox equilibrium
      Specific Conductance (µS/cm,  25°C)  = 1279
                          Density (g/cm³)  =   0.99796
                               Volume (L)  =   5.01617
                        Viscosity (mPa s)  =   0.89502
                        Activity of water  =   1.000
                 Ionic strength (mol/kgw)  =   2.098e-02
                       Mass of water (kg)  =   5.001e+00
                 Total alkalinity (eq/kg)  =   1.216e-09
                         Temperature (°C)  =  25.00
                  Electrical balance (eq)  =  -9.238e-09
 Percent error, 100*(Cat-|An|)/(Cat+|An|)  =  -0.00
                               Iterations  = 154410
                                  Total H  = 5.551997e+02
                                  Total O  = 2.777374e+02

----------------------------Distribution of species----------------------------

                                               Log       Log       Log    mole V
   Species          Molality    Activity  Molality  Activity     Gamma   cm³/mol

   OH-             1.289e-07   1.114e-07    -6.890    -6.953    -0.063     -3.98
   H+              1.023e-07   9.081e-08    -6.990    -7.042    -0.052      0.00
   H2O             5.551e+01   9.998e-01     1.744    -0.000     0.000     18.07
Ca            6.877e-03
   Ca+2            5.245e-03   3.051e-03    -2.280    -2.515    -0.235    -17.81
   CaSO4           1.632e-03   1.640e-03    -2.787    -2.785     0.002      7.50
   CaOH+           6.421e-09   5.576e-09    -8.192    -8.254    -0.061     (0)  
   CaHSO4+         1.127e-09   9.786e-10    -8.948    -9.009    -0.061     (0)  
H(0)          0.000e+00
   H2              0.000e+00   0.000e+00   -40.197   -40.195     0.002     28.61
O(0)          2.035e-12
   O2              1.018e-12   1.023e-12   -11.992   -11.990     0.002     30.40
S(-2)         0.000e+00
   HS-             0.000e+00   0.000e+00  -124.028  -124.091    -0.063     20.71
   H2S             0.000e+00   0.000e+00  -124.193  -124.191     0.002     36.27
   S-2             0.000e+00   0.000e+00  -129.728  -129.967    -0.239     (0)  
   (H2S)2          0.000e+00   0.000e+00  -249.663  -249.661     0.002     30.09
S(6)          6.877e-03
   SO4-2           5.245e-03   3.021e-03    -2.280    -2.520    -0.240     19.31
   CaSO4           1.632e-03   1.640e-03    -2.787    -2.785     0.002      7.50
   HSO4-           3.072e-08   2.667e-08    -7.513    -7.574    -0.061     40.38
   CaHSO4+         1.127e-09   9.786e-10    -8.948    -9.009    -0.061     (0)  

------------------------------Saturation indices-------------------------------

  Phase               SI** log IAP   log K(298 K,   1 atm)

  Anhydrite        -0.76     -5.04   -4.28  CaSO4
  Gypsum           -0.45     -5.04   -4.58  CaSO4:2H2O
  H2(g)           -37.09    -40.19   -3.10  H2
  H2O(g)           -1.50     -0.00    1.50  H2O
  H2S(g)         -123.20   -131.13   -7.94  H2S
  O2(g)            -9.10    -11.99   -2.89  O2
  Sulfur          -92.03    -87.15    4.88  S

**For a gas, SI = log10(fugacity). Fugacity = pressure * phi / 1 atm.
  For ideal gases, phi = 1.

Reaction step 24.

Using solution 1.	Pure water
Using kinetics 1.	

Kinetics 1.	

	Time step: 30000 seconds  (Incremented time: 81110 seconds)

	Rate name       Delta Moles Total Moles   Reactant        Coefficient

	Gypsum           -1.311e-02   6.761e+01   Gypsum                    1

-----------------------------Solution composition------------------------------

	Elements           Molality       Moles

	Ca                9.497e-03   4.750e-02
	S                 9.497e-03   4.750e-02

----------------------------Description of solution----------------------------

                                       pH  =   7.051      Charge balance
                                       pe  =  11.489      Adjusted to redox equilibrium
      Specific Conductance (µS/cm,  25°C)  = 1684
                          Density (g/cm³)  =   0.99830
                               Volume (L)  =   5.01672
                        Viscosity (mPa s)  =   0.89625
                        Activity of water  =   1.000
                 Ionic strength (mol/kgw)  =   2.788e-02
                       Mass of water (kg)  =   5.002e+00
                 Total alkalinity (eq/kg)  =   1.216e-09
                         Temperature (°C)  =  25.00
                  Electrical balance (eq)  =  -1.028e-08
 Percent error, 100*(Cat-|An|)/(Cat+|An|)  =  -0.00
                               Iterations  = 174804
                                  Total H  = 5.552522e+02
                                  Total O  = 2.778161e+02

----------------------------Distribution of species----------------------------

                                               Log       Log       Log    mole V
   Species          Molality    Activity  Molality  Activity     Gamma   cm³/mol

   OH-             1.341e-07   1.138e-07    -6.873    -6.944    -0.071     -3.95
   H+              1.014e-07   8.894e-08    -6.994    -7.051    -0.057      0.00
   H2O             5.551e+01   9.997e-01     1.744    -0.000     0.000     18.07
Ca            9.497e-03
   Ca+2            6.971e-03   3.807e-03    -2.157    -2.419    -0.263    -17.75
   CaSO4           2.527e-03   2.543e-03    -2.597    -2.595     0.003      7.50
   CaOH+           8.318e-09   7.101e-09    -8.080    -8.149    -0.069     (0)  
   CaHSO4+         1.742e-09   1.487e-09    -8.759    -8.828    -0.069     (0)  
H(0)          0.000e+00
   H2              0.000e+00   0.000e+00   -40.233   -40.231     0.003     28.61
O(0)          2.394e-12
   O2              1.197e-12   1.205e-12   -11.922   -11.919     0.003     30.40
S(-2)         0.000e+00
   HS-             0.000e+00   0.000e+00  -124.076  -124.148    -0.071     20.73
   H2S             0.000e+00   0.000e+00  -124.260  -124.257     0.003     36.27
   S-2             0.000e+00   0.000e+00  -129.748  -130.015    -0.267     (0)  
   (H2S)2          0.000e+00   0.000e+00  -249.795  -249.792     0.003     30.09
S(6)          9.497e-03
   SO4-2           6.971e-03   3.757e-03    -2.157    -2.425    -0.268     20.00
   CaSO4           2.527e-03   2.543e-03    -2.597    -2.595     0.003      7.50
   HSO4-           3.805e-08   3.249e-08    -7.420    -7.488    -0.069     40.40
   CaHSO4+         1.742e-09   1.487e-09    -8.759    -8.828    -0.069     (0)  

------------------------------Saturation indices-------------------------------

  Phase               SI** log IAP   log K(298 K,   1 atm)

  Anhydrite        -0.57     -4.84   -4.28  CaSO4
  Gypsum           -0.26     -4.84   -4.58  CaSO4:2H2O
  H2(g)           -37.13    -40.23   -3.10  H2
  H2O(g)           -1.50     -0.00    1.50  H2O
  H2S(g)         -123.26   -131.20   -7.94  H2S
  O2(g)            -9.03    -11.92   -2.89  O2
  Sulfur          -92.06    -87.18    4.88  S

**For a gas, SI = log10(fugacity). Fugacity = pressure * phi / 1 atm.
  For ideal gases, phi = 1.

Reaction step 25.

Using solution 1.	Pure water
Using kinetics 1.	

Kinetics 1.	

	Time step: 50000 seconds  (Incremented time: 131110 seconds)

	Rate name       Delta Moles Total Moles   Reactant        Coefficient

	Gypsum           -1.346e-02   6.760e+01   Gypsum                    1

-----------------------------Solution composition------------------------------

	Elements           Molality       Moles

	Ca                1.219e-02   6.096e-02
	S                 1.219e-02   6.096e-02

----------------------------Description of solution----------------------------

                                       pH  =   7.059      Charge balance
                                       pe  =  11.556      Adjusted to redox equilibrium
      Specific Conductance (µS/cm,  25°C)  = 2080
                          Density (g/cm³)  =   0.99865
                               Volume (L)  =   5.01729
                        Viscosity (mPa s)  =   0.89740
                        Activity of water  =   1.000
                 Ionic strength (mol/kgw)  =   3.470e-02
                       Mass of water (kg)  =   5.002e+00
                 Total alkalinity (eq/kg)  =   1.215e-09
                         Temperature (°C)  =  25.00
                  Electrical balance (eq)  =  -1.128e-08
 Percent error, 100*(Cat-|An|)/(Cat+|An|)  =  -0.00
                               Iterations  = 179412
                                  Total H  = 5.553060e+02
                                  Total O  = 2.778968e+02

----------------------------Distribution of species----------------------------

                                               Log       Log       Log    mole V
   Species          Molality    Activity  Molality  Activity     Gamma   cm³/mol

   OH-             1.387e-07   1.158e-07    -6.858    -6.936    -0.078     -3.92
   H+              1.006e-07   8.735e-08    -6.997    -7.059    -0.061      0.00
   H2O             5.551e+01   9.996e-01     1.744    -0.000     0.000     18.07
Ca            1.219e-02
   Ca+2            8.675e-03   4.498e-03    -2.062    -2.347    -0.285    -17.70
   CaSO4           3.511e-03   3.539e-03    -2.455    -2.451     0.003      7.50
   CaOH+           1.015e-08   8.543e-09    -7.994    -8.068    -0.075     (0)  
   CaHSO4+         2.414e-09   2.032e-09    -8.617    -8.692    -0.075     (0)  
H(0)          0.000e+00
   H2              0.000e+00   0.000e+00   -40.382   -40.379     0.003     28.61
O(0)          4.727e-12
   O2              2.363e-12   2.382e-12   -11.626   -11.623     0.003     30.40
S(-2)         0.000e+00
   HS-             0.000e+00   0.000e+00  -124.599  -124.677    -0.078     20.75
   H2S             0.000e+00   0.000e+00  -124.797  -124.794     0.003     36.27
   S-2             0.000e+00   0.000e+00  -130.245  -130.536    -0.291     (0)  
   (H2S)2          0.000e+00   0.000e+00  -250.870  -250.866     0.003     30.09
S(6)          1.219e-02
   SO4-2           8.675e-03   4.425e-03    -2.062    -2.354    -0.292     20.59
   CaSO4           3.511e-03   3.539e-03    -2.455    -2.451     0.003      7.50
   HSO4-           4.464e-08   3.758e-08    -7.350    -7.425    -0.075     40.42
   CaHSO4+         2.414e-09   2.032e-09    -8.617    -8.692    -0.075     (0)  

------------------------------Saturation indices-------------------------------

  Phase               SI** log IAP   log K(298 K,   1 atm)

  Anhydrite        -0.42     -4.70   -4.28  CaSO4
  Gypsum           -0.12     -4.70   -4.58  CaSO4:2H2O
  H2(g)           -37.28    -40.38   -3.10  H2
  H2O(g)           -1.50     -0.00    1.50  H2O
  H2S(g)         -123.80   -131.74   -7.94  H2S
  O2(g)            -8.73    -11.62   -2.89  O2
  Sulfur          -92.45    -87.57    4.88  S

**For a gas, SI = log10(fugacity). Fugacity = pressure * phi / 1 atm.
  For ideal gases, phi = 1.

Reaction step 26.

Using solution 1.	Pure water
Using kinetics 1.	

Kinetics 1.	

	Time step: 80000 seconds  (Incremented time: 211110 seconds)

	Rate name       Delta Moles Total Moles   Reactant        Coefficient

	Gypsum           -9.458e-03   6.759e+01   Gypsum                    1

-----------------------------Solution composition------------------------------

	Elements           Molality       Moles

	Ca                1.408e-02   7.042e-02
	S                 1.408e-02   7.042e-02

----------------------------Description of solution----------------------------

                                       pH  =   7.064      Charge balance
                                       pe  =  11.574      Adjusted to redox equilibrium
      Specific Conductance (µS/cm,  25°C)  = 2349
                          Density (g/cm³)  =   0.99889
                               Volume (L)  =   5.01769
                        Viscosity (mPa s)  =   0.89817
                        Activity of water  =   1.000
                 Ionic strength (mol/kgw)  =   3.937e-02
                       Mass of water (kg)  =   5.003e+00
                 Total alkalinity (eq/kg)  =   1.215e-09
                         Temperature (°C)  =  25.00
                  Electrical balance (eq)  =  -1.195e-08
 Percent error, 100*(Cat-|An|)/(Cat+|An|)  =  -0.00
                               Iterations  = 126102
                                  Total H  = 5.553438e+02
                                  Total O  = 2.779536e+02

----------------------------Distribution of species----------------------------

                                               Log       Log       Log    mole V
   Species          Molality    Activity  Molality  Activity     Gamma   cm³/mol

   OH-             1.416e-07   1.171e-07    -6.849    -6.931    -0.082     -3.91
   H+              1.000e-07   8.637e-08    -7.000    -7.064    -0.064      0.00
   H2O             5.551e+01   9.996e-01     1.744    -0.000     0.000     18.07
Ca            1.408e-02
   Ca+2            9.843e-03   4.947e-03    -2.007    -2.306    -0.299    -17.68
   CaSO4           4.233e-03   4.272e-03    -2.373    -2.369     0.004      7.50
   CaOH+           1.138e-08   9.502e-09    -7.944    -8.022    -0.078     (0)  
   CaHSO4+         2.905e-09   2.425e-09    -8.537    -8.615    -0.078     (0)  
H(0)          0.000e+00
   H2              0.000e+00   0.000e+00   -40.428   -40.424     0.004     28.61
O(0)          5.828e-12
   O2              2.914e-12   2.941e-12   -11.535   -11.532     0.004     30.40
S(-2)         0.000e+00
   HS-             0.000e+00   0.000e+00  -124.742  -124.824    -0.082     20.76
   H2S             0.000e+00   0.000e+00  -124.950  -124.946     0.004     36.27
   S-2             0.000e+00   0.000e+00  -130.373  -130.679    -0.305     (0)  
   (H2S)2          0.000e+00   0.000e+00  -251.175  -251.171     0.004     30.09
S(6)          1.408e-02
   SO4-2           9.843e-03   4.856e-03    -2.007    -2.314    -0.307     20.96
   CaSO4           4.233e-03   4.272e-03    -2.373    -2.369     0.004      7.50
   HSO4-           4.884e-08   4.078e-08    -7.311    -7.390    -0.078     40.43
   CaHSO4+         2.905e-09   2.425e-09    -8.537    -8.615    -0.078     (0)  

------------------------------Saturation indices-------------------------------

  Phase               SI** log IAP   log K(298 K,   1 atm)

  Anhydrite        -0.34     -4.62   -4.28  CaSO4
  Gypsum           -0.04     -4.62   -4.58  CaSO4:2H2O
  H2(g)           -37.32    -40.42   -3.10  H2
  H2O(g)           -1.50     -0.00    1.50  H2O
  H2S(g)         -123.95   -131.89   -7.94  H2S
  O2(g)            -8.64    -11.53   -2.89  O2
  Sulfur          -92.55    -87.67    4.88  S

**For a gas, SI = log10(fugacity). Fugacity = pressure * phi / 1 atm.
  For ideal gases, phi = 1.

Reaction step 27.

Using solution 1.	Pure water
Using kinetics 1.	

Kinetics 1.	

	Time step: 100000 seconds  (Incremented time: 311110 seconds)

	Rate name       Delta Moles Total Moles   Reactant        Coefficient

	Gypsum           -3.612e-03   6.758e+01   Gypsum                    1

-----------------------------Solution composition------------------------------

	Elements           Molality       Moles

	Ca                1.480e-02   7.403e-02
	S                 1.480e-02   7.403e-02

----------------------------Description of solution----------------------------

                                       pH  =   7.065      Charge balance
                                       pe  =  11.566      Adjusted to redox equilibrium
      Specific Conductance (µS/cm,  25°C)  = 2450
                          Density (g/cm³)  =   0.99898
                               Volume (L)  =   5.01785
                        Viscosity (mPa s)  =   0.89845
                        Activity of water  =   1.000
                 Ionic strength (mol/kgw)  =   4.114e-02
                       Mass of water (kg)  =   5.003e+00
                 Total alkalinity (eq/kg)  =   1.215e-09
                         Temperature (°C)  =  25.00
                  Electrical balance (eq)  =  -1.219e-08
 Percent error, 100*(Cat-|An|)/(Cat+|An|)  =  -0.00
                               Iterations  = 48156
                                  Total H  = 5.553583e+02
                                  Total O  = 2.779753e+02

----------------------------Distribution of species----------------------------

                                               Log       Log       Log    mole V
   Species          Molality    Activity  Molality  Activity     Gamma   cm³/mol

   OH-             1.427e-07   1.176e-07    -6.846    -6.930    -0.084     -3.90
   H+              9.983e-08   8.602e-08    -7.001    -7.065    -0.065      0.00
   H2O             5.551e+01   9.996e-01     1.744    -0.000     0.000     18.07
Ca            1.480e-02
   Ca+2            1.028e-02   5.112e-03    -1.988    -2.291    -0.304    -17.67
   CaSO4           4.514e-03   4.557e-03    -2.345    -2.341     0.004      7.50
   CaOH+           1.184e-08   9.858e-09    -7.927    -8.006    -0.080     (0)  
   CaHSO4+         3.096e-09   2.577e-09    -8.509    -8.589    -0.080     (0)  
H(0)          0.000e+00
   H2              0.000e+00   0.000e+00   -40.417   -40.413     0.004     28.61
O(0)          5.531e-12
   O2              2.766e-12   2.792e-12   -11.558   -11.554     0.004     30.40
S(-2)         0.000e+00
   HS-             0.000e+00   0.000e+00  -124.683  -124.767    -0.084     20.76
   H2S             0.000e+00   0.000e+00  -124.895  -124.891     0.004     36.27
   S-2             0.000e+00   0.000e+00  -130.309  -130.620    -0.310     (0)  
   (H2S)2          0.000e+00   0.000e+00  -251.064  -251.060     0.004     30.09
S(6)          1.480e-02
   SO4-2           1.028e-02   5.013e-03    -1.988    -2.300    -0.312     21.09
   CaSO4           4.514e-03   4.557e-03    -2.345    -2.341     0.004      7.50
   HSO4-           5.037e-08   4.193e-08    -7.298    -7.377    -0.080     40.43
   CaHSO4+         3.096e-09   2.577e-09    -8.509    -8.589    -0.080     (0)  

------------------------------Saturation indices-------------------------------

  Phase               SI** log IAP   log K(298 K,   1 atm)

  Anhydrite        -0.31     -4.59   -4.28  CaSO4
  Gypsum           -0.01     -4.59   -4.58  CaSO4:2H2O
  H2(g)           -37.31    -40.41   -3.10  H2
  H2O(g)           -1.50     -0.00    1.50  H2O
  H2S(g)         -123.90   -131.83   -7.94  H2S
  O2(g)            -8.66    -11.55   -2.89  O2
  Sulfur          -92.51    -87.63    4.88  S

**For a gas, SI = log10(fugacity). Fugacity = pressure * phi / 1 atm.
  For ideal gases, phi = 1.

------------------
End of simulation.
------------------

------------------------------------
Reading input data for simulation 2.
------------------------------------

---------------------------------
End of Run after 6.75814 Seconds.
---------------------------------

