   Input file: /home/zhouw/Documents/Codes/ReactiveSoluteTransport/Benchmark/gypsum_single_fracture_10cm_ap5mm/results_total_injection_reference_volume_precipitation_20260426_174012/phreeqc/tt_1e04/tt_1e04.pqi
  Output file: /home/zhouw/Documents/Codes/ReactiveSoluteTransport/Benchmark/gypsum_single_fracture_10cm_ap5mm/results_total_injection_reference_volume_precipitation_20260426_174012/phreeqc/tt_1e04/tt_1e04.pqo
Database file: /home/zhouw/Documents/Codes/phreeqc-3.8.6-17100/database/phreeqc.dat

------------------
Reading data base.
------------------

	SOLUTION_MASTER_SPECIES
	SOLUTION_SPECIES
	PHASES
	GAS_BINARY_PARAMETERS
	EXCHANGE_MASTER_SPECIES
	EXCHANGE_SPECIES
	SURFACE_MASTER_SPECIES
	SURFACE_SPECIES
	MEAN_GAMMAS
	RATES
	END
------------------------------------
Reading input data for simulation 1.
------------------------------------

	TITLE Kinetic gypsum precipitation from supersaturated water for t_cross=1.000000e+04 s
	SOLUTION 1 Supersaturated Ca-SO4 water
	    temp    25.0
	    units   mmol/kgw
	    pH      7.0 charge
	    Ca      3.000000000000e+01
	    S(6)    3.000000000000e+01
	    water  5.000000000000e-01
	RATES
	Gypsum
	start
	  10 omega = SR("Gypsum")
	  20 IF omega <= 1 THEN SAVE 0 : END
	  30 A = PARM(1)
	  40 k1 = PARM(2)
	  50 k2 = PARM(3)
	  60 x = SQRT(omega) - 1
	  70 rate = -A * (k1 * x^10 + k2 * x^2)
	  80 SAVE rate * TIME
	end
	KINETICS 1
	Gypsum
	    m      0.0
	    m0     0.0
	    parms  2.000000000000e-02  1.000000000000e+00  5.000000000000e-07
	    tol    1e-8
	    steps  1 1 1 2 3 2 10 10 20 30 20 100 100 200 300 200 1000 1000 2000 3000 2000 10000 10000 20000 30000 20000
	    cvode  true
	INCREMENTAL_REACTIONS true
	SELECTED_OUTPUT
	    file                tt_1e04.sel
	    reset               false
	    totals              Ca S(6)
	    kinetics            Gypsum
	    saturation_indices  Gypsum
	USER_PUNCH
	    headings Time_s pH SI_Gypsum SR_Gypsum V_Precip_cm3 DV_ref_m3
	start
	  10 PUNCH TOTAL_TIME
	  20 PUNCH -LA("H+")
	  30 PUNCH SI("Gypsum")
	  40 PUNCH SR("Gypsum")
	  50 v_precip = KIN("Gypsum") * 73.9
	  60 PUNCH v_precip
	  70 PUNCH -v_precip * 1e-6
	end
	END
-----
TITLE
-----

 Kinetic gypsum precipitation from supersaturated water for t_cross=1.000000e+04 s

-------------------------------------------
Beginning of initial solution calculations.
-------------------------------------------

Initial solution 1.	Supersaturated Ca-SO4 water

-----------------------------Solution composition------------------------------

	Elements           Molality       Moles

	Ca                3.000e-02   1.500e-02
	S(6)              3.000e-02   1.500e-02

----------------------------Description of solution----------------------------

                                       pH  =   7.092      Charge balance
                                       pe  =   4.000    
      Specific Conductance (µS/cm,  25°C)  = 4446
                          Density (g/cm³)  =   1.00092
                               Volume (L)  =   0.50158
                        Viscosity (mPa s)  =   0.90373
                        Activity of water  =   0.999
                 Ionic strength (mol/kgw)  =   7.635e-02
                       Mass of water (kg)  =   5.000e-01
                 Total alkalinity (eq/kg)  =   2.129e-16
                         Temperature (°C)  =  25.00
                  Electrical balance (eq)  =   1.223e-11
 Percent error, 100*(Cat-|An|)/(Cat+|An|)  =   0.00
                               Iterations  =   5
                                  Total H  = 5.550622e+01
                                  Total O  = 2.781311e+01

----------------------------Distribution of species----------------------------

                                               Log       Log       Log    mole V
   Species          Molality    Activity  Molality  Activity     Gamma   cm³/mol

   OH-             1.600e-07   1.251e-07    -6.796    -6.903    -0.107     -3.79
   H+              9.668e-08   8.087e-08    -7.015    -7.092    -0.078      0.00
   H2O             5.551e+01   9.992e-01     1.744    -0.000     0.000     18.07
Ca            3.000e-02
   Ca+2            1.909e-02   8.046e-03    -1.719    -2.094    -0.375    -17.51
   CaSO4           1.091e-02   1.111e-02    -1.962    -1.954     0.008      7.50
   CaOH+           2.071e-08   1.650e-08    -7.684    -7.783    -0.099     (0)  
   CaHSO4+         7.410e-09   5.903e-09    -8.130    -8.229    -0.099     (0)  
H(0)          9.098e-26
   H2              4.549e-26   4.630e-26   -25.342   -25.334     0.008     28.61
O(0)          0.000e+00
   O2              0.000e+00   0.000e+00   -41.719   -41.712     0.008     30.40
S(6)          3.000e-02
   SO4-2           1.909e-02   7.762e-03    -1.719    -2.110    -0.391     23.29
   CaSO4           1.091e-02   1.111e-02    -1.962    -1.954     0.008      7.50
   HSO4-           7.660e-08   6.102e-08    -7.116    -7.215    -0.099     40.50
   CaHSO4+         7.410e-09   5.903e-09    -8.130    -8.229    -0.099     (0)  

------------------------------Saturation indices-------------------------------

  Phase               SI** log IAP   log K(298 K,   1 atm)

  Anhydrite         0.07     -4.20   -4.28  CaSO4
  Gypsum            0.38     -4.21   -4.58  CaSO4:2H2O
  H2(g)           -22.23    -25.33   -3.10  H2
  H2O(g)           -1.50     -0.00    1.50  H2O
  O2(g)           -38.82    -41.71   -2.89  O2

**For a gas, SI = log10(fugacity). Fugacity = pressure * phi / 1 atm.
  For ideal gases, phi = 1.

-----------------------------------------
Beginning of batch-reaction calculations.
-----------------------------------------

Reaction step 1.

Using solution 1.	Supersaturated Ca-SO4 water
Using kinetics 1.	

Kinetics 1.	

	Time step: 1 seconds  (Incremented time: 1 seconds)

	Rate name       Delta Moles Total Moles   Reactant        Coefficient

	Gypsum            4.412e-05   4.412e-05   Gypsum                    1

-----------------------------Solution composition------------------------------

	Elements           Molality       Moles

	Ca                2.991e-02   1.496e-02
	S                 2.991e-02   1.496e-02

----------------------------Description of solution----------------------------

                                       pH  =   7.092      Charge balance
                                       pe  =  -1.663      Adjusted to redox equilibrium
      Specific Conductance (µS/cm,  25°C)  = 4435
                          Density (g/cm³)  =   1.00091
                               Volume (L)  =   0.50158
                        Viscosity (mPa s)  =   0.90371
                        Activity of water  =   0.999
                 Ionic strength (mol/kgw)  =   7.615e-02
                       Mass of water (kg)  =   5.000e-01
                 Total alkalinity (eq/kg)  =   2.249e-16
                         Temperature (°C)  =  25.00
                  Electrical balance (eq)  =   1.238e-11
 Percent error, 100*(Cat-|An|)/(Cat+|An|)  =   0.00
                               Iterations  = 105 (254 overall)
                                  Total H  = 5.550604e+01
                                  Total O  = 2.781284e+01

----------------------------Distribution of species----------------------------

                                               Log       Log       Log    mole V
   Species          Molality    Activity  Molality  Activity     Gamma   cm³/mol

   OH-             1.599e-07   1.250e-07    -6.796    -6.903    -0.107     -3.79
   H+              9.670e-08   8.089e-08    -7.015    -7.092    -0.078      0.00
   H2O             5.551e+01   9.992e-01     1.744    -0.000     0.000     18.07
Ca            2.991e-02
   Ca+2            1.904e-02   8.032e-03    -1.720    -2.095    -0.375    -17.51
   CaSO4           1.087e-02   1.107e-02    -1.964    -1.956     0.008      7.50
   CaOH+           2.066e-08   1.646e-08    -7.685    -7.783    -0.099     (0)  
   CaHSO4+         7.384e-09   5.884e-09    -8.132    -8.230    -0.099     (0)  
H(0)          1.931e-14
   H2              9.653e-15   9.824e-15   -14.015   -14.008     0.008     28.61
O(0)          0.000e+00
   O2              0.000e+00   0.000e+00   -64.373   -64.365     0.008     30.40
S(-2)         2.056e-19
   HS-             1.332e-19   1.042e-19   -18.875   -18.982    -0.107     20.83
   H2S             7.239e-20   7.367e-20   -19.140   -19.133     0.008     36.27
   S-2             3.795e-25   1.555e-25   -24.421   -24.808    -0.387     (0)  
   (H2S)2          2.810e-40   2.860e-40   -39.551   -39.544     0.008     30.09
S(6)          2.991e-02
   SO4-2           1.904e-02   7.748e-03    -1.720    -2.111    -0.390     23.28
   CaSO4           1.087e-02   1.107e-02    -1.964    -1.956     0.008      7.50
   HSO4-           7.647e-08   6.093e-08    -7.116    -7.215    -0.099     40.50
   CaHSO4+         7.384e-09   5.884e-09    -8.132    -8.230    -0.099     (0)  

------------------------------Saturation indices-------------------------------

  Phase               SI** log IAP   log K(298 K,   1 atm)

  Anhydrite         0.07     -4.21   -4.28  CaSO4
  Gypsum            0.38     -4.21   -4.58  CaSO4:2H2O
  H2(g)           -10.91    -14.01   -3.10  H2
  H2O(g)           -1.50     -0.00    1.50  H2O
  H2S(g)          -18.14    -26.07   -7.94  H2S
  O2(g)           -61.47    -64.37   -2.89  O2
  Sulfur          -13.16     -8.27    4.88  S

**For a gas, SI = log10(fugacity). Fugacity = pressure * phi / 1 atm.
  For ideal gases, phi = 1.

Reaction step 2.

Using solution 1.	Supersaturated Ca-SO4 water
Using kinetics 1.	

Kinetics 1.	

	Time step: 1 seconds  (Incremented time: 2 seconds)

	Rate name       Delta Moles Total Moles   Reactant        Coefficient

	Gypsum            4.195e-05   8.606e-05   Gypsum                    1

-----------------------------Solution composition------------------------------

	Elements           Molality       Moles

	Ca                2.983e-02   1.491e-02
	S                 2.983e-02   1.491e-02

----------------------------Description of solution----------------------------

                                       pH  =   7.092      Charge balance
                                       pe  =  -1.517      Adjusted to redox equilibrium
      Specific Conductance (µS/cm,  25°C)  = 4424
                          Density (g/cm³)  =   1.00090
                               Volume (L)  =   0.50158
                        Viscosity (mPa s)  =   0.90368
                        Activity of water  =   0.999
                 Ionic strength (mol/kgw)  =   7.597e-02
                       Mass of water (kg)  =   5.000e-01
                 Total alkalinity (eq/kg)  =   2.331e-16
                         Temperature (°C)  =  25.00
                  Electrical balance (eq)  =   1.167e-11
 Percent error, 100*(Cat-|An|)/(Cat+|An|)  =   0.00
                               Iterations  =  25 (61 overall)
                                  Total H  = 5.550587e+01
                                  Total O  = 2.781259e+01

----------------------------Distribution of species----------------------------

                                               Log       Log       Log    mole V
   Species          Molality    Activity  Molality  Activity     Gamma   cm³/mol

   OH-             1.598e-07   1.250e-07    -6.796    -6.903    -0.107     -3.80
   H+              9.671e-08   8.091e-08    -7.015    -7.092    -0.077      0.00
   H2O             5.551e+01   9.992e-01     1.744    -0.000     0.000     18.07
Ca            2.983e-02
   Ca+2            1.899e-02   8.017e-03    -1.721    -2.096    -0.375    -17.51
   CaSO4           1.084e-02   1.103e-02    -1.965    -1.958     0.008      7.50
   CaOH+           2.062e-08   1.643e-08    -7.686    -7.784    -0.099     (0)  
   CaHSO4+         7.360e-09   5.865e-09    -8.133    -8.232    -0.099     (0)  
H(0)          9.844e-15
   H2              4.922e-15   5.009e-15   -14.308   -14.300     0.008     28.61
O(0)          0.000e+00
   O2              0.000e+00   0.000e+00   -63.788   -63.780     0.008     30.40
S(-2)         1.388e-20
   HS-             8.989e-21   7.030e-21   -20.046   -20.153    -0.107     20.83
   H2S             4.887e-21   4.973e-21   -20.311   -20.303     0.008     36.27
   S-2             2.558e-26   1.049e-26   -25.592   -25.979    -0.387     (0)  
   (H2S)2          0.000e+00   0.000e+00   -41.893   -41.885     0.008     30.09
S(6)          2.983e-02
   SO4-2           1.899e-02   7.735e-03    -1.721    -2.112    -0.390     23.27
   CaSO4           1.084e-02   1.103e-02    -1.965    -1.958     0.008      7.50
   HSO4-           7.635e-08   6.085e-08    -7.117    -7.216    -0.099     40.50
   CaHSO4+         7.360e-09   5.865e-09    -8.133    -8.232    -0.099     (0)  

------------------------------Saturation indices-------------------------------

  Phase               SI** log IAP   log K(298 K,   1 atm)

  Anhydrite         0.07     -4.21   -4.28  CaSO4
  Gypsum            0.37     -4.21   -4.58  CaSO4:2H2O
  H2(g)           -11.20    -14.30   -3.10  H2
  H2O(g)           -1.50     -0.00    1.50  H2O
  H2S(g)          -19.31    -27.25   -7.94  H2S
  O2(g)           -60.89    -63.78   -2.89  O2
  Sulfur          -14.04     -9.15    4.88  S

**For a gas, SI = log10(fugacity). Fugacity = pressure * phi / 1 atm.
  For ideal gases, phi = 1.

Reaction step 3.

Using solution 1.	Supersaturated Ca-SO4 water
Using kinetics 1.	

Kinetics 1.	

	Time step: 1 seconds  (Incremented time: 3 seconds)

	Rate name       Delta Moles Total Moles   Reactant        Coefficient

	Gypsum            3.997e-05   1.260e-04   Gypsum                    1

-----------------------------Solution composition------------------------------

	Elements           Molality       Moles

	Ca                2.975e-02   1.487e-02
	S                 2.975e-02   1.487e-02

----------------------------Description of solution----------------------------

                                       pH  =   7.092      Charge balance
                                       pe  =  -1.803      Adjusted to redox equilibrium
      Specific Conductance (µS/cm,  25°C)  = 4414
                          Density (g/cm³)  =   1.00089
                               Volume (L)  =   0.50157
                        Viscosity (mPa s)  =   0.90366
                        Activity of water  =   0.999
                 Ionic strength (mol/kgw)  =   7.579e-02
                       Mass of water (kg)  =   5.000e-01
                 Total alkalinity (eq/kg)  =   2.099e-16
                         Temperature (°C)  =  25.00
                  Electrical balance (eq)  =   1.105e-11
 Percent error, 100*(Cat-|An|)/(Cat+|An|)  =   0.00
                               Iterations  =  21 (53 overall)
                                  Total H  = 5.550571e+01
                                  Total O  = 2.781235e+01

----------------------------Distribution of species----------------------------

                                               Log       Log       Log    mole V
   Species          Molality    Activity  Molality  Activity     Gamma   cm³/mol

   OH-             1.597e-07   1.250e-07    -6.797    -6.903    -0.107     -3.80
   H+              9.673e-08   8.094e-08    -7.014    -7.092    -0.077      0.00
   H2O             5.551e+01   9.992e-01     1.744    -0.000     0.000     18.07
Ca            2.975e-02
   Ca+2            1.895e-02   8.004e-03    -1.722    -2.097    -0.374    -17.51
   CaSO4           1.080e-02   1.099e-02    -1.967    -1.959     0.008      7.50
   CaOH+           2.057e-08   1.640e-08    -7.687    -7.785    -0.099     (0)  
   CaHSO4+         7.336e-09   5.847e-09    -8.135    -8.233    -0.099     (0)  
H(0)          3.677e-14
   H2              1.838e-14   1.871e-14   -13.736   -13.728     0.008     28.61
O(0)          0.000e+00
   O2              0.000e+00   0.000e+00   -64.932   -64.925     0.008     30.40
S(-2)         2.696e-18
   HS-             1.746e-18   1.366e-18   -17.758   -17.865    -0.107     20.83
   H2S             9.500e-19   9.667e-19   -18.022   -18.015     0.008     36.27
   S-2             4.967e-24   2.039e-24   -23.304   -23.691    -0.387     (0)  
   (H2S)2          4.839e-38   4.924e-38   -37.315   -37.308     0.008     30.09
S(6)          2.975e-02
   SO4-2           1.895e-02   7.722e-03    -1.722    -2.112    -0.390     23.26
   CaSO4           1.080e-02   1.099e-02    -1.967    -1.959     0.008      7.50
   HSO4-           7.624e-08   6.077e-08    -7.118    -7.216    -0.099     40.50
   CaHSO4+         7.336e-09   5.847e-09    -8.135    -8.233    -0.099     (0)  

------------------------------Saturation indices-------------------------------

  Phase               SI** log IAP   log K(298 K,   1 atm)

  Anhydrite         0.07     -4.21   -4.28  CaSO4
  Gypsum            0.37     -4.21   -4.58  CaSO4:2H2O
  H2(g)           -10.63    -13.73   -3.10  H2
  H2O(g)           -1.50     -0.00    1.50  H2O
  H2S(g)          -17.02    -24.96   -7.94  H2S
  O2(g)           -62.03    -64.92   -2.89  O2
  Sulfur          -12.32     -7.44    4.88  S

**For a gas, SI = log10(fugacity). Fugacity = pressure * phi / 1 atm.
  For ideal gases, phi = 1.

Reaction step 4.

Using solution 1.	Supersaturated Ca-SO4 water
Using kinetics 1.	

Kinetics 1.	

	Time step: 2 seconds  (Incremented time: 5 seconds)

	Rate name       Delta Moles Total Moles   Reactant        Coefficient

	Gypsum            7.468e-05   2.007e-04   Gypsum                    1

-----------------------------Solution composition------------------------------

	Elements           Molality       Moles

	Ca                2.960e-02   1.480e-02
	S                 2.960e-02   1.480e-02

----------------------------Description of solution----------------------------

                                       pH  =   7.092      Charge balance
                                       pe  =  -1.658      Adjusted to redox equilibrium
      Specific Conductance (µS/cm,  25°C)  = 4395
                          Density (g/cm³)  =   1.00087
                               Volume (L)  =   0.50157
                        Viscosity (mPa s)  =   0.90361
                        Activity of water  =   0.999
                 Ionic strength (mol/kgw)  =   7.546e-02
                       Mass of water (kg)  =   5.000e-01
                 Total alkalinity (eq/kg)  =   2.038e-16
                         Temperature (°C)  =  25.00
                  Electrical balance (eq)  =   7.024e-12
 Percent error, 100*(Cat-|An|)/(Cat+|An|)  =   0.00
                               Iterations  =  29 (73 overall)
                                  Total H  = 5.550541e+01
                                  Total O  = 2.781190e+01

----------------------------Distribution of species----------------------------

                                               Log       Log       Log    mole V
   Species          Molality    Activity  Molality  Activity     Gamma   cm³/mol

   OH-             1.596e-07   1.249e-07    -6.797    -6.903    -0.106     -3.80
   H+              9.676e-08   8.098e-08    -7.014    -7.092    -0.077      0.00
   H2O             5.551e+01   9.992e-01     1.744    -0.000     0.000     18.07
Ca            2.960e-02
   Ca+2            1.886e-02   7.978e-03    -1.724    -2.098    -0.374    -17.51
   CaSO4           1.074e-02   1.092e-02    -1.969    -1.962     0.008      7.50
   CaOH+           2.049e-08   1.634e-08    -7.688    -7.787    -0.098     (0)  
   CaHSO4+         7.292e-09   5.814e-09    -8.137    -8.236    -0.098     (0)  
H(0)          1.888e-14
   H2              9.441e-15   9.606e-15   -14.025   -14.017     0.008     28.61
O(0)          0.000e+00
   O2              0.000e+00   0.000e+00   -64.353   -64.346     0.008     30.40
S(-2)         1.870e-19
   HS-             1.210e-19   9.472e-20   -18.917   -19.024    -0.106     20.83
   H2S             6.591e-20   6.707e-20   -19.181   -19.173     0.008     36.27
   S-2             3.438e-25   1.413e-25   -24.464   -24.850    -0.386     (0)  
   (H2S)2          2.329e-40   2.370e-40   -39.633   -39.625     0.008     30.09
S(6)          2.960e-02
   SO4-2           1.886e-02   7.699e-03    -1.724    -2.114    -0.389     23.24
   CaSO4           1.074e-02   1.092e-02    -1.969    -1.962     0.008      7.50
   HSO4-           7.602e-08   6.062e-08    -7.119    -7.217    -0.098     40.50
   CaHSO4+         7.292e-09   5.814e-09    -8.137    -8.236    -0.098     (0)  

------------------------------Saturation indices-------------------------------

  Phase               SI** log IAP   log K(298 K,   1 atm)

  Anhydrite         0.07     -4.21   -4.28  CaSO4
  Gypsum            0.37     -4.21   -4.58  CaSO4:2H2O
  H2(g)           -10.92    -14.02   -3.10  H2
  H2O(g)           -1.50     -0.00    1.50  H2O
  H2S(g)          -18.18    -26.12   -7.94  H2S
  O2(g)           -61.45    -64.35   -2.89  O2
  Sulfur          -13.19     -8.31    4.88  S

**For a gas, SI = log10(fugacity). Fugacity = pressure * phi / 1 atm.
  For ideal gases, phi = 1.

Reaction step 5.

Using solution 1.	Supersaturated Ca-SO4 water
Using kinetics 1.	

Kinetics 1.	

	Time step: 3 seconds  (Incremented time: 8 seconds)

	Rate name       Delta Moles Total Moles   Reactant        Coefficient

	Gypsum            1.008e-04   3.015e-04   Gypsum                    1

-----------------------------Solution composition------------------------------

	Elements           Molality       Moles

	Ca                2.940e-02   1.470e-02
	S                 2.940e-02   1.470e-02

----------------------------Description of solution----------------------------

                                       pH  =   7.091      Charge balance
                                       pe  =  -1.702      Adjusted to redox equilibrium
      Specific Conductance (µS/cm,  25°C)  = 4370
                          Density (g/cm³)  =   1.00085
                               Volume (L)  =   0.50157
                        Viscosity (mPa s)  =   0.90354
                        Activity of water  =   0.999
                 Ionic strength (mol/kgw)  =   7.501e-02
                       Mass of water (kg)  =   5.000e-01
                 Total alkalinity (eq/kg)  =   2.044e-16
                         Temperature (°C)  =  25.00
                  Electrical balance (eq)  =  -2.953e-12
 Percent error, 100*(Cat-|An|)/(Cat+|An|)  =  -0.00
                               Iterations  =  31 (79 overall)
                                  Total H  = 5.550501e+01
                                  Total O  = 2.781130e+01

----------------------------Distribution of species----------------------------

                                               Log       Log       Log    mole V
   Species          Molality    Activity  Molality  Activity     Gamma   cm³/mol

   OH-             1.594e-07   1.248e-07    -6.798    -6.904    -0.106     -3.80
   H+              9.680e-08   8.104e-08    -7.014    -7.091    -0.077      0.00
   H2O             5.551e+01   9.992e-01     1.744    -0.000     0.000     18.07
Ca            2.940e-02
   Ca+2            1.875e-02   7.944e-03    -1.727    -2.100    -0.373    -17.52
   CaSO4           1.065e-02   1.083e-02    -1.973    -1.965     0.008      7.50
   CaOH+           2.038e-08   1.626e-08    -7.691    -7.789    -0.098     (0)  
   CaHSO4+         7.233e-09   5.770e-09    -8.141    -8.239    -0.098     (0)  
H(0)          2.320e-14
   H2              1.160e-14   1.180e-14   -13.936   -13.928     0.008     28.61
O(0)          0.000e+00
   O2              0.000e+00   0.000e+00   -64.532   -64.525     0.008     30.40
S(-2)         4.244e-19
   HS-             2.746e-19   2.150e-19   -18.561   -18.667    -0.106     20.83
   H2S             1.498e-19   1.524e-19   -18.825   -18.817     0.008     36.27
   S-2             7.785e-25   3.205e-25   -24.109   -24.494    -0.385     (0)  
   (H2S)2          1.202e-39   1.223e-39   -38.920   -38.912     0.008     30.09
S(6)          2.940e-02
   SO4-2           1.875e-02   7.668e-03    -1.727    -2.115    -0.388     23.21
   CaSO4           1.065e-02   1.083e-02    -1.973    -1.965     0.008      7.50
   HSO4-           7.573e-08   6.041e-08    -7.121    -7.219    -0.098     40.50
   CaHSO4+         7.233e-09   5.770e-09    -8.141    -8.239    -0.098     (0)  

------------------------------Saturation indices-------------------------------

  Phase               SI** log IAP   log K(298 K,   1 atm)

  Anhydrite         0.06     -4.22   -4.28  CaSO4
  Gypsum            0.37     -4.22   -4.58  CaSO4:2H2O
  H2(g)           -10.83    -13.93   -3.10  H2
  H2O(g)           -1.50     -0.00    1.50  H2O
  H2S(g)          -17.82    -25.76   -7.94  H2S
  O2(g)           -61.63    -64.52   -2.89  O2
  Sulfur          -12.92     -8.04    4.88  S

**For a gas, SI = log10(fugacity). Fugacity = pressure * phi / 1 atm.
  For ideal gases, phi = 1.

Reaction step 6.

Using solution 1.	Supersaturated Ca-SO4 water
Using kinetics 1.	

Kinetics 1.	

	Time step: 2 seconds  (Incremented time: 10 seconds)

	Rate name       Delta Moles Total Moles   Reactant        Coefficient

	Gypsum            6.093e-05   3.624e-04   Gypsum                    1

-----------------------------Solution composition------------------------------

	Elements           Molality       Moles

	Ca                2.928e-02   1.464e-02
	S                 2.928e-02   1.464e-02

----------------------------Description of solution----------------------------

                                       pH  =   7.091      Charge balance
                                       pe  =  -1.718      Adjusted to redox equilibrium
      Specific Conductance (µS/cm,  25°C)  = 4355
                          Density (g/cm³)  =   1.00083
                               Volume (L)  =   0.50156
                        Viscosity (mPa s)  =   0.90351
                        Activity of water  =   0.999
                 Ionic strength (mol/kgw)  =   7.473e-02
                       Mass of water (kg)  =   5.000e-01
                 Total alkalinity (eq/kg)  =   2.030e-16
                         Temperature (°C)  =  25.00
                  Electrical balance (eq)  =  -5.174e-12
 Percent error, 100*(Cat-|An|)/(Cat+|An|)  =  -0.00
                               Iterations  =  27 (67 overall)
                                  Total H  = 5.550477e+01
                                  Total O  = 2.781093e+01

----------------------------Distribution of species----------------------------

                                               Log       Log       Log    mole V
   Species          Molality    Activity  Molality  Activity     Gamma   cm³/mol

   OH-             1.593e-07   1.247e-07    -6.798    -6.904    -0.106     -3.80
   H+              9.682e-08   8.107e-08    -7.014    -7.091    -0.077      0.00
   H2O             5.551e+01   9.992e-01     1.744    -0.000     0.000     18.07
Ca            2.928e-02
   Ca+2            1.868e-02   7.923e-03    -1.729    -2.101    -0.373    -17.52
   CaSO4           1.059e-02   1.078e-02    -1.975    -1.968     0.007      7.50
   CaOH+           2.031e-08   1.621e-08    -7.692    -7.790    -0.098     (0)  
   CaHSO4+         7.197e-09   5.743e-09    -8.143    -8.241    -0.098     (0)  
H(0)          2.501e-14
   H2              1.250e-14   1.272e-14   -13.903   -13.896     0.007     28.61
O(0)          0.000e+00
   O2              0.000e+00   0.000e+00   -64.597   -64.590     0.007     30.40
S(-2)         5.715e-19
   HS-             3.697e-19   2.896e-19   -18.432   -18.538    -0.106     20.83
   H2S             2.018e-19   2.053e-19   -18.695   -18.688     0.007     36.27
   S-2             1.047e-24   4.314e-25   -23.980   -24.365    -0.385     (0)  
   (H2S)2          2.182e-39   2.220e-39   -38.661   -38.654     0.007     30.09
S(6)          2.928e-02
   SO4-2           1.868e-02   7.648e-03    -1.729    -2.116    -0.388     23.20
   CaSO4           1.059e-02   1.078e-02    -1.975    -1.968     0.007      7.50
   HSO4-           7.556e-08   6.029e-08    -7.122    -7.220    -0.098     40.50
   CaHSO4+         7.197e-09   5.743e-09    -8.143    -8.241    -0.098     (0)  

------------------------------Saturation indices-------------------------------

  Phase               SI** log IAP   log K(298 K,   1 atm)

  Anhydrite         0.06     -4.22   -4.28  CaSO4
  Gypsum            0.36     -4.22   -4.58  CaSO4:2H2O
  H2(g)           -10.79    -13.90   -3.10  H2
  H2O(g)           -1.50     -0.00    1.50  H2O
  H2S(g)          -17.69    -25.63   -7.94  H2S
  O2(g)           -61.70    -64.59   -2.89  O2
  Sulfur          -12.82     -7.94    4.88  S

**For a gas, SI = log10(fugacity). Fugacity = pressure * phi / 1 atm.
  For ideal gases, phi = 1.

Reaction step 7.

Using solution 1.	Supersaturated Ca-SO4 water
Using kinetics 1.	

Kinetics 1.	

	Time step: 10 seconds  (Incremented time: 20 seconds)

	Rate name       Delta Moles Total Moles   Reactant        Coefficient

	Gypsum            2.502e-04   6.127e-04   Gypsum                    1

-----------------------------Solution composition------------------------------

	Elements           Molality       Moles

	Ca                2.878e-02   1.439e-02
	S                 2.878e-02   1.439e-02

----------------------------Description of solution----------------------------

                                       pH  =   7.090      Charge balance
                                       pe  =  -1.585      Adjusted to redox equilibrium
      Specific Conductance (µS/cm,  25°C)  = 4292
                          Density (g/cm³)  =   1.00077
                               Volume (L)  =   0.50155
                        Viscosity (mPa s)  =   0.90335
                        Activity of water  =   0.999
                 Ionic strength (mol/kgw)  =   7.362e-02
                       Mass of water (kg)  =   5.000e-01
                 Total alkalinity (eq/kg)  =   2.115e-16
                         Temperature (°C)  =  25.00
                  Electrical balance (eq)  =  -5.171e-12
 Percent error, 100*(Cat-|An|)/(Cat+|An|)  =  -0.00
                               Iterations  =  49 (133 overall)
                                  Total H  = 5.550377e+01
                                  Total O  = 2.780943e+01

----------------------------Distribution of species----------------------------

                                               Log       Log       Log    mole V
   Species          Molality    Activity  Molality  Activity     Gamma   cm³/mol

   OH-             1.588e-07   1.245e-07    -6.799    -6.905    -0.105     -3.80
   H+              9.692e-08   8.121e-08    -7.014    -7.090    -0.077      0.00
   H2O             5.551e+01   9.992e-01     1.744    -0.000     0.000     18.07
Ca            2.878e-02
   Ca+2            1.840e-02   7.837e-03    -1.735    -2.106    -0.371    -17.52
   CaSO4           1.037e-02   1.055e-02    -1.984    -1.977     0.007      7.50
   CaOH+           2.003e-08   1.600e-08    -7.698    -7.796    -0.098     (0)  
   CaHSO4+         7.050e-09   5.632e-09    -8.152    -8.249    -0.098     (0)  
H(0)          1.357e-14
   H2              6.785e-15   6.901e-15   -14.168   -14.161     0.007     28.61
O(0)          0.000e+00
   O2              0.000e+00   0.000e+00   -64.066   -64.058     0.007     30.40
S(-2)         4.907e-20
   HS-             3.170e-20   2.487e-20   -19.499   -19.604    -0.105     20.83
   H2S             1.736e-20   1.766e-20   -19.760   -19.753     0.007     36.27
   S-2             8.931e-26   3.698e-26   -25.049   -25.432    -0.383     (0)  
   (H2S)2          0.000e+00   0.000e+00   -40.792   -40.784     0.007     30.09
S(6)          2.878e-02
   SO4-2           1.840e-02   7.570e-03    -1.735    -2.121    -0.386     23.14
   CaSO4           1.037e-02   1.055e-02    -1.984    -1.977     0.007      7.50
   HSO4-           7.483e-08   5.977e-08    -7.126    -7.224    -0.098     40.50
   CaHSO4+         7.050e-09   5.632e-09    -8.152    -8.249    -0.098     (0)  

------------------------------Saturation indices-------------------------------

  Phase               SI** log IAP   log K(298 K,   1 atm)

  Anhydrite         0.05     -4.23   -4.28  CaSO4
  Gypsum            0.35     -4.23   -4.58  CaSO4:2H2O
  H2(g)           -11.06    -14.16   -3.10  H2
  H2O(g)           -1.50     -0.00    1.50  H2O
  H2S(g)          -18.76    -26.69   -7.94  H2S
  O2(g)           -61.17    -64.06   -2.89  O2
  Sulfur          -13.62     -8.74    4.88  S

**For a gas, SI = log10(fugacity). Fugacity = pressure * phi / 1 atm.
  For ideal gases, phi = 1.

Reaction step 8.

Using solution 1.	Supersaturated Ca-SO4 water
Using kinetics 1.	

Kinetics 1.	

	Time step: 10 seconds  (Incremented time: 30 seconds)

	Rate name       Delta Moles Total Moles   Reactant        Coefficient

	Gypsum            1.894e-04   8.021e-04   Gypsum                    1

-----------------------------Solution composition------------------------------

	Elements           Molality       Moles

	Ca                2.840e-02   1.420e-02
	S                 2.840e-02   1.420e-02

----------------------------Description of solution----------------------------

                                       pH  =   7.090      Charge balance
                                       pe  =  -1.770      Adjusted to redox equilibrium
      Specific Conductance (µS/cm,  25°C)  = 4245
                          Density (g/cm³)  =   1.00072
                               Volume (L)  =   0.50154
                        Viscosity (mPa s)  =   0.90323
                        Activity of water  =   0.999
                 Ionic strength (mol/kgw)  =   7.277e-02
                       Mass of water (kg)  =   5.000e-01
                 Total alkalinity (eq/kg)  =   2.263e-16
                         Temperature (°C)  =  25.00
                  Electrical balance (eq)  =  -5.171e-12
 Percent error, 100*(Cat-|An|)/(Cat+|An|)  =  -0.00
                               Iterations  =  43 (115 overall)
                                  Total H  = 5.550301e+01
                                  Total O  = 2.780830e+01

----------------------------Distribution of species----------------------------

                                               Log       Log       Log    mole V
   Species          Molality    Activity  Molality  Activity     Gamma   cm³/mol

   OH-             1.584e-07   1.244e-07    -6.800    -6.905    -0.105     -3.80
   H+              9.700e-08   8.132e-08    -7.013    -7.090    -0.077      0.00
   H2O             5.551e+01   9.992e-01     1.744    -0.000     0.000     18.07
Ca            2.840e-02
   Ca+2            1.819e-02   7.772e-03    -1.740    -2.109    -0.369    -17.52
   CaSO4           1.021e-02   1.038e-02    -1.991    -1.984     0.007      7.50
   CaOH+           1.982e-08   1.585e-08    -7.703    -7.800    -0.097     (0)  
   CaHSO4+         6.940e-09   5.548e-09    -8.159    -8.256    -0.097     (0)  
H(0)          3.195e-14
   H2              1.598e-14   1.625e-14   -13.797   -13.789     0.007     28.61
O(0)          0.000e+00
   O2              0.000e+00   0.000e+00   -64.809   -64.802     0.007     30.40
S(-2)         1.497e-18
   HS-             9.666e-19   7.590e-19   -18.015   -18.120    -0.105     20.83
   H2S             5.307e-19   5.397e-19   -18.275   -18.268     0.007     36.27
   S-2             2.713e-24   1.127e-24   -23.567   -23.948    -0.381     (0)  
   (H2S)2          1.509e-38   1.535e-38   -37.821   -37.814     0.007     30.09
S(6)          2.840e-02
   SO4-2           1.819e-02   7.509e-03    -1.740    -2.124    -0.384     23.09
   CaSO4           1.021e-02   1.038e-02    -1.991    -1.984     0.007      7.50
   HSO4-           7.427e-08   5.937e-08    -7.129    -7.226    -0.097     40.50
   CaHSO4+         6.940e-09   5.548e-09    -8.159    -8.256    -0.097     (0)  

------------------------------Saturation indices-------------------------------

  Phase               SI** log IAP   log K(298 K,   1 atm)

  Anhydrite         0.04     -4.23   -4.28  CaSO4
  Gypsum            0.35     -4.23   -4.58  CaSO4:2H2O
  H2(g)           -10.69    -13.79   -3.10  H2
  H2O(g)           -1.50     -0.00    1.50  H2O
  H2S(g)          -17.27    -25.21   -7.94  H2S
  O2(g)           -61.91    -64.80   -2.89  O2
  Sulfur          -12.51     -7.63    4.88  S

**For a gas, SI = log10(fugacity). Fugacity = pressure * phi / 1 atm.
  For ideal gases, phi = 1.

Reaction step 9.

Using solution 1.	Supersaturated Ca-SO4 water
Using kinetics 1.	

Kinetics 1.	

	Time step: 20 seconds  (Incremented time: 50 seconds)

	Rate name       Delta Moles Total Moles   Reactant        Coefficient

	Gypsum            2.773e-04   1.079e-03   Gypsum                    1

-----------------------------Solution composition------------------------------

	Elements           Molality       Moles

	Ca                2.784e-02   1.392e-02
	S                 2.784e-02   1.392e-02

----------------------------Description of solution----------------------------

                                       pH  =   7.089      Charge balance
                                       pe  =  -1.674      Adjusted to redox equilibrium
      Specific Conductance (µS/cm,  25°C)  = 4175
                          Density (g/cm³)  =   1.00065
                               Volume (L)  =   0.50153
                        Viscosity (mPa s)  =   0.90305
                        Activity of water  =   0.999
                 Ionic strength (mol/kgw)  =   7.152e-02
                       Mass of water (kg)  =   5.000e-01
                 Total alkalinity (eq/kg)  =   2.165e-16
                         Temperature (°C)  =  25.00
                  Electrical balance (eq)  =  -5.165e-12
 Percent error, 100*(Cat-|An|)/(Cat+|An|)  =  -0.00
                               Iterations  =  55 (145 overall)
                                  Total H  = 5.550190e+01
                                  Total O  = 2.780663e+01

----------------------------Distribution of species----------------------------

                                               Log       Log       Log    mole V
   Species          Molality    Activity  Molality  Activity     Gamma   cm³/mol

   OH-             1.578e-07   1.241e-07    -6.802    -6.906    -0.104     -3.81
   H+              9.711e-08   8.149e-08    -7.013    -7.089    -0.076      0.00
   H2O             5.551e+01   9.992e-01     1.744    -0.000     0.000     18.07
Ca            2.784e-02
   Ca+2            1.788e-02   7.675e-03    -1.748    -2.115    -0.367    -17.53
   CaSO4           9.963e-03   1.013e-02    -2.002    -1.994     0.007      7.50
   CaOH+           1.951e-08   1.562e-08    -7.710    -7.806    -0.097     (0)  
   CaHSO4+         6.777e-09   5.425e-09    -8.169    -8.266    -0.097     (0)  
H(0)          2.057e-14
   H2              1.029e-14   1.046e-14   -13.988   -13.981     0.007     28.61
O(0)          0.000e+00
   O2              0.000e+00   0.000e+00   -64.427   -64.419     0.007     30.40
S(-2)         2.543e-19
   HS-             1.639e-19   1.289e-19   -18.785   -18.890    -0.104     20.83
   H2S             9.035e-20   9.185e-20   -19.044   -19.037     0.007     36.27
   S-2             4.574e-25   1.911e-25   -24.340   -24.719    -0.379     (0)  
   (H2S)2          4.373e-40   4.446e-40   -39.359   -39.352     0.007     30.09
S(6)          2.784e-02
   SO4-2           1.788e-02   7.421e-03    -1.748    -2.130    -0.382     23.02
   CaSO4           9.963e-03   1.013e-02    -2.002    -1.994     0.007      7.50
   HSO4-           7.345e-08   5.879e-08    -7.134    -7.231    -0.097     40.49
   CaHSO4+         6.777e-09   5.425e-09    -8.169    -8.266    -0.097     (0)  

------------------------------Saturation indices-------------------------------

  Phase               SI** log IAP   log K(298 K,   1 atm)

  Anhydrite         0.03     -4.24   -4.28  CaSO4
  Gypsum            0.34     -4.25   -4.58  CaSO4:2H2O
  H2(g)           -10.88    -13.98   -3.10  H2
  H2O(g)           -1.50     -0.00    1.50  H2O
  H2S(g)          -18.04    -25.98   -7.94  H2S
  O2(g)           -61.53    -64.42   -2.89  O2
  Sulfur          -13.09     -8.21    4.88  S

**For a gas, SI = log10(fugacity). Fugacity = pressure * phi / 1 atm.
  For ideal gases, phi = 1.

Reaction step 10.

Using solution 1.	Supersaturated Ca-SO4 water
Using kinetics 1.	

Kinetics 1.	

	Time step: 30 seconds  (Incremented time: 80 seconds)

	Rate name       Delta Moles Total Moles   Reactant        Coefficient

	Gypsum            2.825e-04   1.362e-03   Gypsum                    1

-----------------------------Solution composition------------------------------

	Elements           Molality       Moles

	Ca                2.728e-02   1.364e-02
	S                 2.728e-02   1.364e-02

----------------------------Description of solution----------------------------

                                       pH  =   7.088      Charge balance
                                       pe  =  -1.758      Adjusted to redox equilibrium
      Specific Conductance (µS/cm,  25°C)  = 4103
                          Density (g/cm³)  =   1.00058
                               Volume (L)  =   0.50152
                        Viscosity (mPa s)  =   0.90287
                        Activity of water  =   0.999
                 Ionic strength (mol/kgw)  =   7.025e-02
                       Mass of water (kg)  =   5.000e-01
                 Total alkalinity (eq/kg)  =   2.037e-16
                         Temperature (°C)  =  25.00
                  Electrical balance (eq)  =  -5.159e-12
 Percent error, 100*(Cat-|An|)/(Cat+|An|)  =  -0.00
                               Iterations  =  57 (147 overall)
                                  Total H  = 5.550077e+01
                                  Total O  = 2.780494e+01

----------------------------Distribution of species----------------------------

                                               Log       Log       Log    mole V
   Species          Molality    Activity  Molality  Activity     Gamma   cm³/mol

   OH-             1.572e-07   1.239e-07    -6.803    -6.907    -0.104     -3.81
   H+              9.722e-08   8.165e-08    -7.012    -7.088    -0.076      0.00
   H2O             5.551e+01   9.992e-01     1.744    -0.000     0.000     18.07
Ca            2.728e-02
   Ca+2            1.756e-02   7.576e-03    -1.755    -2.121    -0.365    -17.53
   CaSO4           9.716e-03   9.875e-03    -2.013    -2.005     0.007      7.50
   CaOH+           1.920e-08   1.539e-08    -7.717    -7.813    -0.096     (0)  
   CaHSO4+         6.613e-09   5.300e-09    -8.180    -8.276    -0.096     (0)  
H(0)          3.046e-14
   H2              1.523e-14   1.548e-14   -13.817   -13.810     0.007     28.61
O(0)          0.000e+00
   O2              0.000e+00   0.000e+00   -64.767   -64.760     0.007     30.40
S(-2)         1.209e-18
   HS-             7.780e-19   6.129e-19   -18.109   -18.213    -0.104     20.82
   H2S             4.305e-19   4.375e-19   -18.366   -18.359     0.007     36.27
   S-2             2.158e-24   9.065e-25   -23.666   -24.043    -0.377     (0)  
   (H2S)2          9.926e-39   1.009e-38   -38.003   -37.996     0.007     30.09
S(6)          2.728e-02
   SO4-2           1.756e-02   7.329e-03    -1.755    -2.135    -0.380     22.95
   CaSO4           9.716e-03   9.875e-03    -2.013    -2.005     0.007      7.50
   HSO4-           7.260e-08   5.818e-08    -7.139    -7.235    -0.096     40.49
   CaHSO4+         6.613e-09   5.300e-09    -8.180    -8.276    -0.096     (0)  

------------------------------Saturation indices-------------------------------

  Phase               SI** log IAP   log K(298 K,   1 atm)

  Anhydrite         0.02     -4.26   -4.28  CaSO4
  Gypsum            0.33     -4.26   -4.58  CaSO4:2H2O
  H2(g)           -10.71    -13.81   -3.10  H2
  H2O(g)           -1.50     -0.00    1.50  H2O
  H2S(g)          -17.36    -25.30   -7.94  H2S
  O2(g)           -61.87    -64.76   -2.89  O2
  Sulfur          -12.58     -7.70    4.88  S

**For a gas, SI = log10(fugacity). Fugacity = pressure * phi / 1 atm.
  For ideal gases, phi = 1.

Reaction step 11.

Using solution 1.	Supersaturated Ca-SO4 water
Using kinetics 1.	

Kinetics 1.	

	Time step: 20 seconds  (Incremented time: 100 seconds)

	Rate name       Delta Moles Total Moles   Reactant        Coefficient

	Gypsum            1.398e-04   1.502e-03   Gypsum                    1

-----------------------------Solution composition------------------------------

	Elements           Molality       Moles

	Ca                2.700e-02   1.350e-02
	S                 2.700e-02   1.350e-02

----------------------------Description of solution----------------------------

                                       pH  =   7.088      Charge balance
                                       pe  =  -1.742      Adjusted to redox equilibrium
      Specific Conductance (µS/cm,  25°C)  = 4068
                          Density (g/cm³)  =   1.00054
                               Volume (L)  =   0.50151
                        Viscosity (mPa s)  =   0.90277
                        Activity of water  =   0.999
                 Ionic strength (mol/kgw)  =   6.962e-02
                       Mass of water (kg)  =   4.999e-01
                 Total alkalinity (eq/kg)  =   1.973e-16
                         Temperature (°C)  =  25.00
                  Electrical balance (eq)  =  -5.159e-12
 Percent error, 100*(Cat-|An|)/(Cat+|An|)  =  -0.00
                               Iterations  =  39 (99 overall)
                                  Total H  = 5.550021e+01
                                  Total O  = 2.780410e+01

----------------------------Distribution of species----------------------------

                                               Log       Log       Log    mole V
   Species          Molality    Activity  Molality  Activity     Gamma   cm³/mol

   OH-             1.569e-07   1.237e-07    -6.804    -6.908    -0.103     -3.81
   H+              9.728e-08   8.174e-08    -7.012    -7.088    -0.076      0.00
   H2O             5.551e+01   9.992e-01     1.744    -0.000     0.000     18.07
Ca            2.700e-02
   Ca+2            1.741e-02   7.527e-03    -1.759    -2.123    -0.364    -17.54
   CaSO4           9.594e-03   9.749e-03    -2.018    -2.011     0.007      7.50
   CaOH+           1.904e-08   1.527e-08    -7.720    -7.816    -0.096     (0)  
   CaHSO4+         6.531e-09   5.238e-09    -8.185    -8.281    -0.096     (0)  
H(0)          2.835e-14
   H2              1.417e-14   1.440e-14   -13.849   -13.842     0.007     28.61
O(0)          0.000e+00
   O2              0.000e+00   0.000e+00   -64.704   -64.697     0.007     30.40
S(-2)         9.007e-19
   HS-             5.794e-19   4.568e-19   -18.237   -18.340    -0.103     20.82
   H2S             3.213e-19   3.265e-19   -18.493   -18.486     0.007     36.27
   S-2             1.603e-24   6.750e-25   -23.795   -24.171    -0.376     (0)  
   (H2S)2          5.527e-39   5.617e-39   -38.257   -38.251     0.007     30.09
S(6)          2.700e-02
   SO4-2           1.741e-02   7.284e-03    -1.759    -2.138    -0.378     22.92
   CaSO4           9.594e-03   9.749e-03    -2.018    -2.011     0.007      7.50
   HSO4-           7.217e-08   5.788e-08    -7.142    -7.237    -0.096     40.49
   CaHSO4+         6.531e-09   5.238e-09    -8.185    -8.281    -0.096     (0)  

------------------------------Saturation indices-------------------------------

  Phase               SI** log IAP   log K(298 K,   1 atm)

  Anhydrite         0.02     -4.26   -4.28  CaSO4
  Gypsum            0.32     -4.26   -4.58  CaSO4:2H2O
  H2(g)           -10.74    -13.84   -3.10  H2
  H2O(g)           -1.50     -0.00    1.50  H2O
  H2S(g)          -17.49    -25.43   -7.94  H2S
  O2(g)           -61.81    -64.70   -2.89  O2
  Sulfur          -12.68     -7.79    4.88  S

**For a gas, SI = log10(fugacity). Fugacity = pressure * phi / 1 atm.
  For ideal gases, phi = 1.

Reaction step 12.

Using solution 1.	Supersaturated Ca-SO4 water
Using kinetics 1.	

Kinetics 1.	

	Time step: 100 seconds  (Incremented time: 200 seconds)

	Rate name       Delta Moles Total Moles   Reactant        Coefficient

	Gypsum            4.421e-04   1.944e-03   Gypsum                    1

-----------------------------Solution composition------------------------------

	Elements           Molality       Moles

	Ca                2.612e-02   1.306e-02
	S                 2.612e-02   1.306e-02

----------------------------Description of solution----------------------------

                                       pH  =   7.086      Charge balance
                                       pe  =  -1.739      Adjusted to redox equilibrium
      Specific Conductance (µS/cm,  25°C)  = 3955
                          Density (g/cm³)  =   1.00043
                               Volume (L)  =   0.50149
                        Viscosity (mPa s)  =   0.90249
                        Activity of water  =   0.999
                 Ionic strength (mol/kgw)  =   6.762e-02
                       Mass of water (kg)  =   4.999e-01
                 Total alkalinity (eq/kg)  =   1.891e-16
                         Temperature (°C)  =  25.00
                  Electrical balance (eq)  =  -5.100e-12
 Percent error, 100*(Cat-|An|)/(Cat+|An|)  =  -0.00
                               Iterations  =  78 (204 overall)
                                  Total H  = 5.549844e+01
                                  Total O  = 2.780145e+01

----------------------------Distribution of species----------------------------

                                               Log       Log       Log    mole V
   Species          Molality    Activity  Molality  Activity     Gamma   cm³/mol

   OH-             1.560e-07   1.233e-07    -6.807    -6.909    -0.102     -3.82
   H+              9.747e-08   8.201e-08    -7.011    -7.086    -0.075      0.00
   H2O             5.551e+01   9.993e-01     1.744    -0.000     0.000     18.07
Ca            2.612e-02
   Ca+2            1.691e-02   7.370e-03    -1.772    -2.133    -0.361    -17.54
   CaSO4           9.210e-03   9.355e-03    -2.036    -2.029     0.007      7.50
   CaOH+           1.854e-08   1.490e-08    -7.732    -7.827    -0.095     (0)  
   CaHSO4+         6.275e-09   5.043e-09    -8.202    -8.297    -0.095     (0)  
H(0)          2.813e-14
   H2              1.407e-14   1.429e-14   -13.852   -13.845     0.007     28.61
O(0)          0.000e+00
   O2              0.000e+00   0.000e+00   -64.697   -64.691     0.007     30.40
S(-2)         8.575e-19
   HS-             5.504e-19   4.351e-19   -18.259   -18.361    -0.102     20.82
   H2S             3.071e-19   3.120e-19   -18.513   -18.506     0.007     36.27
   S-2             1.508e-24   6.408e-25   -23.822   -24.193    -0.372     (0)  
   (H2S)2          5.049e-39   5.128e-39   -38.297   -38.290     0.007     30.09
S(6)          2.612e-02
   SO4-2           1.691e-02   7.138e-03    -1.772    -2.146    -0.374     22.80
   CaSO4           9.210e-03   9.355e-03    -2.036    -2.029     0.007      7.50
   HSO4-           7.082e-08   5.692e-08    -7.150    -7.245    -0.095     40.49
   CaHSO4+         6.275e-09   5.043e-09    -8.202    -8.297    -0.095     (0)  

------------------------------Saturation indices-------------------------------

  Phase               SI** log IAP   log K(298 K,   1 atm)

  Anhydrite        -0.00     -4.28   -4.28  CaSO4
  Gypsum            0.30     -4.28   -4.58  CaSO4:2H2O
  H2(g)           -10.74    -13.85   -3.10  H2
  H2O(g)           -1.50     -0.00    1.50  H2O
  H2S(g)          -17.51    -25.45   -7.94  H2S
  O2(g)           -61.80    -64.69   -2.89  O2
  Sulfur          -12.69     -7.81    4.88  S

**For a gas, SI = log10(fugacity). Fugacity = pressure * phi / 1 atm.
  For ideal gases, phi = 1.

Reaction step 13.

Using solution 1.	Supersaturated Ca-SO4 water
Using kinetics 1.	

Kinetics 1.	

	Time step: 100 seconds  (Incremented time: 300 seconds)

	Rate name       Delta Moles Total Moles   Reactant        Coefficient

	Gypsum            2.564e-04   2.200e-03   Gypsum                    1

-----------------------------Solution composition------------------------------

	Elements           Molality       Moles

	Ca                2.560e-02   1.280e-02
	S                 2.560e-02   1.280e-02

----------------------------Description of solution----------------------------

                                       pH  =   7.085      Charge balance
                                       pe  =  -1.690      Adjusted to redox equilibrium
      Specific Conductance (µS/cm,  25°C)  = 3890
                          Density (g/cm³)  =   1.00037
                               Volume (L)  =   0.50148
                        Viscosity (mPa s)  =   0.90232
                        Activity of water  =   0.999
                 Ionic strength (mol/kgw)  =   6.646e-02
                       Mass of water (kg)  =   4.999e-01
                 Total alkalinity (eq/kg)  =   1.919e-16
                         Temperature (°C)  =  25.00
                  Electrical balance (eq)  =  -5.095e-12
 Percent error, 100*(Cat-|An|)/(Cat+|An|)  =  -0.00
                               Iterations  =  57 (147 overall)
                                  Total H  = 5.549742e+01
                                  Total O  = 2.779991e+01

----------------------------Distribution of species----------------------------

                                               Log       Log       Log    mole V
   Species          Molality    Activity  Molality  Activity     Gamma   cm³/mol

   OH-             1.555e-07   1.231e-07    -6.808    -6.910    -0.101     -3.82
   H+              9.757e-08   8.217e-08    -7.011    -7.085    -0.075      0.00
   H2O             5.551e+01   9.993e-01     1.744    -0.000     0.000     18.07
Ca            2.560e-02
   Ca+2            1.662e-02   7.278e-03    -1.779    -2.138    -0.359    -17.55
   CaSO4           8.989e-03   9.127e-03    -2.046    -2.040     0.007      7.50
   CaOH+           1.825e-08   1.469e-08    -7.739    -7.833    -0.094     (0)  
   CaHSO4+         6.126e-09   4.930e-09    -8.213    -8.307    -0.094     (0)  
H(0)          2.258e-14
   H2              1.129e-14   1.147e-14   -13.947   -13.941     0.007     28.61
O(0)          0.000e+00
   O2              0.000e+00   0.000e+00   -64.506   -64.499     0.007     30.40
S(-2)         3.519e-19
   HS-             2.256e-19   1.786e-19   -18.647   -18.748    -0.101     20.82
   H2S             1.264e-19   1.283e-19   -18.898   -18.892     0.007     36.27
   S-2             6.146e-25   2.625e-25   -24.211   -24.581    -0.369     (0)  
   (H2S)2          8.543e-40   8.675e-40   -39.068   -39.062     0.007     30.09
S(6)          2.560e-02
   SO4-2           1.662e-02   7.053e-03    -1.779    -2.152    -0.372     22.74
   CaSO4           8.989e-03   9.127e-03    -2.046    -2.040     0.007      7.50
   HSO4-           7.002e-08   5.634e-08    -7.155    -7.249    -0.094     40.48
   CaHSO4+         6.126e-09   4.930e-09    -8.213    -8.307    -0.094     (0)  

------------------------------Saturation indices-------------------------------

  Phase               SI** log IAP   log K(298 K,   1 atm)

  Anhydrite        -0.01     -4.29   -4.28  CaSO4
  Gypsum            0.29     -4.29   -4.58  CaSO4:2H2O
  H2(g)           -10.84    -13.94   -3.10  H2
  H2O(g)           -1.50     -0.00    1.50  H2O
  H2S(g)          -17.90    -25.83   -7.94  H2S
  O2(g)           -61.61    -64.50   -2.89  O2
  Sulfur          -12.98     -8.10    4.88  S

**For a gas, SI = log10(fugacity). Fugacity = pressure * phi / 1 atm.
  For ideal gases, phi = 1.

Reaction step 14.

Using solution 1.	Supersaturated Ca-SO4 water
Using kinetics 1.	

Kinetics 1.	

	Time step: 200 seconds  (Incremented time: 500 seconds)

	Rate name       Delta Moles Total Moles   Reactant        Coefficient

	Gypsum            3.138e-04   2.514e-03   Gypsum                    1

-----------------------------Solution composition------------------------------

	Elements           Molality       Moles

	Ca                2.498e-02   1.249e-02
	S                 2.498e-02   1.249e-02

----------------------------Description of solution----------------------------

                                       pH  =   7.084      Charge balance
                                       pe  =  -1.772      Adjusted to redox equilibrium
      Specific Conductance (µS/cm,  25°C)  = 3810
                          Density (g/cm³)  =   1.00029
                               Volume (L)  =   0.50147
                        Viscosity (mPa s)  =   0.90211
                        Activity of water  =   0.999
                 Ionic strength (mol/kgw)  =   6.503e-02
                       Mass of water (kg)  =   4.999e-01
                 Total alkalinity (eq/kg)  =   1.987e-16
                         Temperature (°C)  =  25.00
                  Electrical balance (eq)  =  -5.083e-12
 Percent error, 100*(Cat-|An|)/(Cat+|An|)  =  -0.00
                               Iterations  =  63 (165 overall)
                                  Total H  = 5.549616e+01
                                  Total O  = 2.779803e+01

----------------------------Distribution of species----------------------------

                                               Log       Log       Log    mole V
   Species          Molality    Activity  Molality  Activity     Gamma   cm³/mol

   OH-             1.548e-07   1.228e-07    -6.810    -6.911    -0.101     -3.83
   H+              9.771e-08   8.237e-08    -7.010    -7.084    -0.074      0.00
   H2O             5.551e+01   9.993e-01     1.744    -0.000     0.000     18.07
Ca            2.498e-02
   Ca+2            1.626e-02   7.164e-03    -1.789    -2.145    -0.356    -17.55
   CaSO4           8.718e-03   8.850e-03    -2.060    -2.053     0.007      7.50
   CaOH+           1.790e-08   1.442e-08    -7.747    -7.841    -0.094     (0)  
   CaHSO4+         5.945e-09   4.792e-09    -8.226    -8.320    -0.094     (0)  
H(0)          3.310e-14
   H2              1.655e-14   1.680e-14   -13.781   -13.775     0.007     28.61
O(0)          0.000e+00
   O2              0.000e+00   0.000e+00   -64.838   -64.831     0.007     30.40
S(-2)         1.601e-18
   HS-             1.024e-18   8.126e-19   -17.990   -18.090    -0.101     20.81
   H2S             5.766e-19   5.853e-19   -18.239   -18.233     0.007     36.27
   S-2             2.772e-24   1.192e-24   -23.557   -23.924    -0.367     (0)  
   (H2S)2          1.778e-38   1.805e-38   -37.750   -37.744     0.007     30.09
S(6)          2.498e-02
   SO4-2           1.626e-02   6.947e-03    -1.789    -2.158    -0.369     22.66
   CaSO4           8.718e-03   8.850e-03    -2.060    -2.053     0.007      7.50
   HSO4-           6.903e-08   5.564e-08    -7.161    -7.255    -0.094     40.48
   CaHSO4+         5.945e-09   4.792e-09    -8.226    -8.320    -0.094     (0)  

------------------------------Saturation indices-------------------------------

  Phase               SI** log IAP   log K(298 K,   1 atm)

  Anhydrite        -0.03     -4.30   -4.28  CaSO4
  Gypsum            0.28     -4.30   -4.58  CaSO4:2H2O
  H2(g)           -10.67    -13.77   -3.10  H2
  H2O(g)           -1.50     -0.00    1.50  H2O
  H2S(g)          -17.24    -25.17   -7.94  H2S
  O2(g)           -61.94    -64.83   -2.89  O2
  Sulfur          -12.49     -7.61    4.88  S

**For a gas, SI = log10(fugacity). Fugacity = pressure * phi / 1 atm.
  For ideal gases, phi = 1.

Reaction step 15.

Using solution 1.	Supersaturated Ca-SO4 water
Using kinetics 1.	

Kinetics 1.	

	Time step: 300 seconds  (Incremented time: 800 seconds)

	Rate name       Delta Moles Total Moles   Reactant        Coefficient

	Gypsum            2.764e-04   2.790e-03   Gypsum                    1

-----------------------------Solution composition------------------------------

	Elements           Molality       Moles

	Ca                2.442e-02   1.221e-02
	S                 2.442e-02   1.221e-02

----------------------------Description of solution----------------------------

                                       pH  =   7.083      Charge balance
                                       pe  =  -1.724      Adjusted to redox equilibrium
      Specific Conductance (µS/cm,  25°C)  = 3738
                          Density (g/cm³)  =   1.00022
                               Volume (L)  =   0.50145
                        Viscosity (mPa s)  =   0.90192
                        Activity of water  =   0.999
                 Ionic strength (mol/kgw)  =   6.377e-02
                       Mass of water (kg)  =   4.999e-01
                 Total alkalinity (eq/kg)  =   2.016e-16
                         Temperature (°C)  =  25.00
                  Electrical balance (eq)  =  -5.075e-12
 Percent error, 100*(Cat-|An|)/(Cat+|An|)  =  -0.00
                               Iterations  =  60 (156 overall)
                                  Total H  = 5.549506e+01
                                  Total O  = 2.779637e+01

----------------------------Distribution of species----------------------------

                                               Log       Log       Log    mole V
   Species          Molality    Activity  Molality  Activity     Gamma   cm³/mol

   OH-             1.542e-07   1.225e-07    -6.812    -6.912    -0.100     -3.83
   H+              9.783e-08   8.255e-08    -7.010    -7.083    -0.074      0.00
   H2O             5.551e+01   9.993e-01     1.744    -0.000     0.000     18.07
Ca            2.442e-02
   Ca+2            1.594e-02   7.062e-03    -1.797    -2.151    -0.354    -17.56
   CaSO4           8.481e-03   8.606e-03    -2.072    -2.065     0.006      7.50
   CaOH+           1.758e-08   1.419e-08    -7.755    -7.848    -0.093     (0)  
   CaHSO4+         5.786e-09   4.670e-09    -8.238    -8.331    -0.093     (0)  
H(0)          2.664e-14
   H2              1.332e-14   1.352e-14   -13.876   -13.869     0.006     28.61
O(0)          0.000e+00
   O2              0.000e+00   0.000e+00   -64.649   -64.642     0.006     30.40
S(-2)         6.631e-19
   HS-             4.236e-19   3.366e-19   -18.373   -18.473    -0.100     20.81
   H2S             2.394e-19   2.430e-19   -18.621   -18.614     0.006     36.27
   S-2             1.139e-24   4.925e-25   -23.943   -24.308    -0.364     (0)  
   (H2S)2          3.066e-39   3.111e-39   -38.513   -38.507     0.006     30.09
S(6)          2.442e-02
   SO4-2           1.594e-02   6.853e-03    -1.797    -2.164    -0.367     22.58
   CaSO4           8.481e-03   8.606e-03    -2.072    -2.065     0.006      7.50
   HSO4-           6.815e-08   5.500e-08    -7.167    -7.260    -0.093     40.48
   CaHSO4+         5.786e-09   4.670e-09    -8.238    -8.331    -0.093     (0)  

------------------------------Saturation indices-------------------------------

  Phase               SI** log IAP   log K(298 K,   1 atm)

  Anhydrite        -0.04     -4.32   -4.28  CaSO4
  Gypsum            0.27     -4.32   -4.58  CaSO4:2H2O
  H2(g)           -10.77    -13.87   -3.10  H2
  H2O(g)           -1.50     -0.00    1.50  H2O
  H2S(g)          -17.62    -25.56   -7.94  H2S
  O2(g)           -61.75    -64.64   -2.89  O2
  Sulfur          -12.78     -7.90    4.88  S

**For a gas, SI = log10(fugacity). Fugacity = pressure * phi / 1 atm.
  For ideal gases, phi = 1.

Reaction step 16.

Using solution 1.	Supersaturated Ca-SO4 water
Using kinetics 1.	

Kinetics 1.	

	Time step: 200 seconds  (Incremented time: 1000 seconds)

	Rate name       Delta Moles Total Moles   Reactant        Coefficient

	Gypsum            1.266e-04   2.917e-03   Gypsum                    1

-----------------------------Solution composition------------------------------

	Elements           Molality       Moles

	Ca                2.417e-02   1.208e-02
	S                 2.417e-02   1.208e-02

----------------------------Description of solution----------------------------

                                       pH  =   7.083      Charge balance
                                       pe  =  -1.859      Adjusted to redox equilibrium
      Specific Conductance (µS/cm,  25°C)  = 3706
                          Density (g/cm³)  =   1.00018
                               Volume (L)  =   0.50145
                        Viscosity (mPa s)  =   0.90184
                        Activity of water  =   0.999
                 Ionic strength (mol/kgw)  =   6.320e-02
                       Mass of water (kg)  =   4.999e-01
                 Total alkalinity (eq/kg)  =   2.115e-16
                         Temperature (°C)  =  25.00
                  Electrical balance (eq)  =  -5.075e-12
 Percent error, 100*(Cat-|An|)/(Cat+|An|)  =  -0.00
                               Iterations  =  39 (99 overall)
                                  Total H  = 5.549455e+01
                                  Total O  = 2.779561e+01

----------------------------Distribution of species----------------------------

                                               Log       Log       Log    mole V
   Species          Molality    Activity  Molality  Activity     Gamma   cm³/mol

   OH-             1.539e-07   1.224e-07    -6.813    -6.912    -0.099     -3.83
   H+              9.789e-08   8.264e-08    -7.009    -7.083    -0.074      0.00
   H2O             5.551e+01   9.993e-01     1.744    -0.000     0.000     18.07
Ca            2.417e-02
   Ca+2            1.580e-02   7.016e-03    -1.801    -2.154    -0.353    -17.56
   CaSO4           8.373e-03   8.495e-03    -2.077    -2.071     0.006      7.50
   CaOH+           1.743e-08   1.408e-08    -7.759    -7.851    -0.093     (0)  
   CaHSO4+         5.714e-09   4.614e-09    -8.243    -8.336    -0.093     (0)  
H(0)          4.987e-14
   H2              2.493e-14   2.530e-14   -13.603   -13.597     0.006     28.61
O(0)          0.000e+00
   O2              0.000e+00   0.000e+00   -65.193   -65.187     0.006     30.40
S(-2)         8.094e-18
   HS-             5.168e-18   4.110e-18   -17.287   -17.386    -0.099     20.81
   H2S             2.927e-18   2.969e-18   -17.534   -17.527     0.006     36.27
   S-2             1.386e-23   6.007e-24   -22.858   -23.221    -0.363     (0)  
   (H2S)2          4.579e-37   4.646e-37   -36.339   -36.333     0.006     30.09
S(6)          2.417e-02
   SO4-2           1.580e-02   6.809e-03    -1.801    -2.167    -0.366     22.55
   CaSO4           8.373e-03   8.495e-03    -2.077    -2.071     0.006      7.50
   HSO4-           6.774e-08   5.471e-08    -7.169    -7.262    -0.093     40.48
   CaHSO4+         5.714e-09   4.614e-09    -8.243    -8.336    -0.093     (0)  

------------------------------Saturation indices-------------------------------

  Phase               SI** log IAP   log K(298 K,   1 atm)

  Anhydrite        -0.04     -4.32   -4.28  CaSO4
  Gypsum            0.26     -4.32   -4.58  CaSO4:2H2O
  H2(g)           -10.50    -13.60   -3.10  H2
  H2O(g)           -1.50     -0.00    1.50  H2O
  H2S(g)          -16.53    -24.47   -7.94  H2S
  O2(g)           -62.29    -65.19   -2.89  O2
  Sulfur          -11.96     -7.08    4.88  S

**For a gas, SI = log10(fugacity). Fugacity = pressure * phi / 1 atm.
  For ideal gases, phi = 1.

Reaction step 17.

Using solution 1.	Supersaturated Ca-SO4 water
Using kinetics 1.	

Kinetics 1.	

	Time step: 1000 seconds  (Incremented time: 2000 seconds)

	Rate name       Delta Moles Total Moles   Reactant        Coefficient

	Gypsum            3.733e-04   3.290e-03   Gypsum                    1

-----------------------------Solution composition------------------------------

	Elements           Molality       Moles

	Ca                2.343e-02   1.171e-02
	S                 2.343e-02   1.171e-02

----------------------------Description of solution----------------------------

                                       pH  =   7.082      Charge balance
                                       pe  =  -1.909      Adjusted to redox equilibrium
      Specific Conductance (µS/cm,  25°C)  = 3609
                          Density (g/cm³)  =   1.00009
                               Volume (L)  =   0.50143
                        Viscosity (mPa s)  =   0.90159
                        Activity of water  =   0.999
                 Ionic strength (mol/kgw)  =   6.148e-02
                       Mass of water (kg)  =   4.999e-01
                 Total alkalinity (eq/kg)  =   2.396e-16
                         Temperature (°C)  =  25.00
                  Electrical balance (eq)  =  -5.039e-12
 Percent error, 100*(Cat-|An|)/(Cat+|An|)  =  -0.00
                               Iterations  =  81 (201 overall)
                                  Total H  = 5.549306e+01
                                  Total O  = 2.779337e+01

----------------------------Distribution of species----------------------------

                                               Log       Log       Log    mole V
   Species          Molality    Activity  Molality  Activity     Gamma   cm³/mol

   OH-             1.531e-07   1.220e-07    -6.815    -6.914    -0.098     -3.84
   H+              9.805e-08   8.289e-08    -7.009    -7.082    -0.073      0.00
   H2O             5.551e+01   9.993e-01     1.744    -0.000     0.000     18.07
Ca            2.343e-02
   Ca+2            1.537e-02   6.877e-03    -1.813    -2.163    -0.349    -17.57
   CaSO4           8.054e-03   8.169e-03    -2.094    -2.088     0.006      7.50
   CaOH+           1.700e-08   1.376e-08    -7.769    -7.861    -0.092     (0)  
   CaHSO4+         5.500e-09   4.451e-09    -8.260    -8.352    -0.092     (0)  
H(0)          6.321e-14
   H2              3.161e-14   3.206e-14   -13.500   -13.494     0.006     28.61
O(0)          0.000e+00
   O2              0.000e+00   0.000e+00   -65.399   -65.392     0.006     30.40
S(-2)         2.053e-17
   HS-             1.308e-17   1.043e-17   -16.884   -16.982    -0.098     20.81
   H2S             7.449e-18   7.555e-18   -17.128   -17.122     0.006     36.27
   S-2             3.476e-23   1.519e-23   -22.459   -22.818    -0.359     (0)  
   (H2S)2          2.966e-36   3.008e-36   -35.528   -35.522     0.006     30.09
S(6)          2.343e-02
   SO4-2           1.537e-02   6.680e-03    -1.813    -2.175    -0.362     22.45
   CaSO4           8.054e-03   8.169e-03    -2.094    -2.088     0.006      7.50
   HSO4-           6.652e-08   5.383e-08    -7.177    -7.269    -0.092     40.48
   CaHSO4+         5.500e-09   4.451e-09    -8.260    -8.352    -0.092     (0)  

------------------------------Saturation indices-------------------------------

  Phase               SI** log IAP   log K(298 K,   1 atm)

  Anhydrite        -0.06     -4.34   -4.28  CaSO4
  Gypsum            0.24     -4.34   -4.58  CaSO4:2H2O
  H2(g)           -10.39    -13.49   -3.10  H2
  H2O(g)           -1.50     -0.00    1.50  H2O
  H2S(g)          -16.13    -24.06   -7.94  H2S
  O2(g)           -62.50    -65.39   -2.89  O2
  Sulfur          -11.66     -6.78    4.88  S

**For a gas, SI = log10(fugacity). Fugacity = pressure * phi / 1 atm.
  For ideal gases, phi = 1.

Reaction step 18.

Using solution 1.	Supersaturated Ca-SO4 water
Using kinetics 1.	

Kinetics 1.	

	Time step: 1000 seconds  (Incremented time: 3000 seconds)

	Rate name       Delta Moles Total Moles   Reactant        Coefficient

	Gypsum            2.044e-04   3.495e-03   Gypsum                    1

-----------------------------Solution composition------------------------------

	Elements           Molality       Moles

	Ca                2.302e-02   1.151e-02
	S                 2.302e-02   1.151e-02

----------------------------Description of solution----------------------------

                                       pH  =   7.081      Charge balance
                                       pe  =  -1.905      Adjusted to redox equilibrium
      Specific Conductance (µS/cm,  25°C)  = 3556
                          Density (g/cm³)  =   1.00004
                               Volume (L)  =   0.50142
                        Viscosity (mPa s)  =   0.90145
                        Activity of water  =   0.999
                 Ionic strength (mol/kgw)  =   6.055e-02
                       Mass of water (kg)  =   4.999e-01
                 Total alkalinity (eq/kg)  =   2.536e-16
                         Temperature (°C)  =  25.00
                  Electrical balance (eq)  =  -5.037e-12
 Percent error, 100*(Cat-|An|)/(Cat+|An|)  =  -0.00
                               Iterations  =  61 (149 overall)
                                  Total H  = 5.549224e+01
                                  Total O  = 2.779214e+01

----------------------------Distribution of species----------------------------

                                               Log       Log       Log    mole V
   Species          Molality    Activity  Molality  Activity     Gamma   cm³/mol

   OH-             1.526e-07   1.218e-07    -6.816    -6.914    -0.098     -3.84
   H+              9.814e-08   8.303e-08    -7.008    -7.081    -0.073      0.00
   H2O             5.551e+01   9.994e-01     1.744    -0.000     0.000     18.07
Ca            2.302e-02
   Ca+2            1.514e-02   6.800e-03    -1.820    -2.167    -0.348    -17.57
   CaSO4           7.880e-03   7.991e-03    -2.103    -2.097     0.006      7.50
   CaOH+           1.677e-08   1.358e-08    -7.776    -7.867    -0.091     (0)  
   CaHSO4+         5.383e-09   4.361e-09    -8.269    -8.360    -0.091     (0)  
H(0)          6.213e-14
   H2              3.107e-14   3.150e-14   -13.508   -13.502     0.006     28.61
O(0)          0.000e+00
   O2              0.000e+00   0.000e+00   -65.383   -65.377     0.006     30.40
S(-2)         1.896e-17
   HS-             1.207e-17   9.634e-18   -16.918   -17.016    -0.098     20.81
   H2S             6.897e-18   6.994e-18   -17.161   -17.155     0.006     36.27
   S-2             3.192e-23   1.401e-23   -22.496   -22.853    -0.358     (0)  
   (H2S)2          2.542e-36   2.577e-36   -35.595   -35.589     0.006     30.09
S(6)          2.302e-02
   SO4-2           1.514e-02   6.608e-03    -1.820    -2.180    -0.360     22.39
   CaSO4           7.880e-03   7.991e-03    -2.103    -2.097     0.006      7.50
   HSO4-           6.585e-08   5.334e-08    -7.181    -7.273    -0.091     40.47
   CaHSO4+         5.383e-09   4.361e-09    -8.269    -8.360    -0.091     (0)  

------------------------------Saturation indices-------------------------------

  Phase               SI** log IAP   log K(298 K,   1 atm)

  Anhydrite        -0.07     -4.35   -4.28  CaSO4
  Gypsum            0.23     -4.35   -4.58  CaSO4:2H2O
  H2(g)           -10.40    -13.50   -3.10  H2
  H2O(g)           -1.50     -0.00    1.50  H2O
  H2S(g)          -16.16    -24.10   -7.94  H2S
  O2(g)           -62.48    -65.38   -2.89  O2
  Sulfur          -11.69     -6.80    4.88  S

**For a gas, SI = log10(fugacity). Fugacity = pressure * phi / 1 atm.
  For ideal gases, phi = 1.

Reaction step 19.

Using solution 1.	Supersaturated Ca-SO4 water
Using kinetics 1.	

Kinetics 1.	

	Time step: 2000 seconds  (Incremented time: 5000 seconds)

	Rate name       Delta Moles Total Moles   Reactant        Coefficient

	Gypsum            2.433e-04   3.738e-03   Gypsum                    1

-----------------------------Solution composition------------------------------

	Elements           Molality       Moles

	Ca                2.253e-02   1.126e-02
	S                 2.253e-02   1.126e-02

----------------------------Description of solution----------------------------

                                       pH  =   7.080      Charge balance
                                       pe  =  -1.902      Adjusted to redox equilibrium
      Specific Conductance (µS/cm,  25°C)  = 3493
                          Density (g/cm³)  =   0.99997
                               Volume (L)  =   0.50141
                        Viscosity (mPa s)  =   0.90128
                        Activity of water  =   0.999
                 Ionic strength (mol/kgw)  =   5.942e-02
                       Mass of water (kg)  =   4.999e-01
                 Total alkalinity (eq/kg)  =   2.532e-16
                         Temperature (°C)  =  25.00
                  Electrical balance (eq)  =  -5.032e-12
 Percent error, 100*(Cat-|An|)/(Cat+|An|)  =  -0.00
                               Iterations  =  67 (167 overall)
                                  Total H  = 5.549127e+01
                                  Total O  = 2.779068e+01

----------------------------Distribution of species----------------------------

                                               Log       Log       Log    mole V
   Species          Molality    Activity  Molality  Activity     Gamma   cm³/mol

   OH-             1.520e-07   1.216e-07    -6.818    -6.915    -0.097     -3.84
   H+              9.826e-08   8.320e-08    -7.008    -7.080    -0.072      0.00
   H2O             5.551e+01   9.994e-01     1.744    -0.000     0.000     18.07
Ca            2.253e-02
   Ca+2            1.486e-02   6.708e-03    -1.828    -2.173    -0.345    -17.58
   CaSO4           7.674e-03   7.780e-03    -2.115    -2.109     0.006      7.50
   CaOH+           1.648e-08   1.337e-08    -7.783    -7.874    -0.091     (0)  
   CaHSO4+         5.245e-09   4.255e-09    -8.280    -8.371    -0.091     (0)  
H(0)          6.150e-14
   H2              3.075e-14   3.117e-14   -13.512   -13.506     0.006     28.61
O(0)          0.000e+00
   O2              0.000e+00   0.000e+00   -65.374   -65.368     0.006     30.40
S(-2)         1.798e-17
   HS-             1.142e-17   9.134e-18   -16.942   -17.039    -0.097     20.80
   H2S             6.554e-18   6.644e-18   -17.184   -17.178     0.006     36.27
   S-2             3.004e-23   1.326e-23   -22.522   -22.877    -0.355     (0)  
   (H2S)2          2.294e-36   2.326e-36   -35.639   -35.633     0.006     30.09
S(6)          2.253e-02
   SO4-2           1.486e-02   6.522e-03    -1.828    -2.186    -0.358     22.32
   CaSO4           7.674e-03   7.780e-03    -2.115    -2.109     0.006      7.50
   HSO4-           6.503e-08   5.276e-08    -7.187    -7.278    -0.091     40.47
   CaHSO4+         5.245e-09   4.255e-09    -8.280    -8.371    -0.091     (0)  

------------------------------Saturation indices-------------------------------

  Phase               SI** log IAP   log K(298 K,   1 atm)

  Anhydrite        -0.08     -4.36   -4.28  CaSO4
  Gypsum            0.22     -4.36   -4.58  CaSO4:2H2O
  H2(g)           -10.41    -13.51   -3.10  H2
  H2O(g)           -1.50     -0.00    1.50  H2O
  H2S(g)          -16.18    -24.12   -7.94  H2S
  O2(g)           -62.48    -65.37   -2.89  O2
  Sulfur          -11.70     -6.82    4.88  S

**For a gas, SI = log10(fugacity). Fugacity = pressure * phi / 1 atm.
  For ideal gases, phi = 1.

Reaction step 20.

Using solution 1.	Supersaturated Ca-SO4 water
Using kinetics 1.	

Kinetics 1.	

	Time step: 3000 seconds  (Incremented time: 8000 seconds)

	Rate name       Delta Moles Total Moles   Reactant        Coefficient

	Gypsum            2.106e-04   3.949e-03   Gypsum                    1

-----------------------------Solution composition------------------------------

	Elements           Molality       Moles

	Ca                2.211e-02   1.105e-02
	S                 2.211e-02   1.105e-02

----------------------------Description of solution----------------------------

                                       pH  =   7.079      Charge balance
                                       pe  =  -1.766      Adjusted to redox equilibrium
      Specific Conductance (µS/cm,  25°C)  = 3438
                          Density (g/cm³)  =   0.99992
                               Volume (L)  =   0.50140
                        Viscosity (mPa s)  =   0.90113
                        Activity of water  =   0.999
                 Ionic strength (mol/kgw)  =   5.845e-02
                       Mass of water (kg)  =   4.999e-01
                 Total alkalinity (eq/kg)  =   2.231e-16
[...]
  Gypsum            0.21     -4.37   -4.58  CaSO4:2H2O
  H2(g)           -10.88    -13.99   -3.10  H2
  H2O(g)           -1.50     -0.00    1.50  H2O
  H2S(g)          -18.11    -26.04   -7.94  H2S
  O2(g)           -61.52    -64.41   -2.89  O2
  Sulfur          -13.15     -8.26    4.88  S

**For a gas, SI = log10(fugacity). Fugacity = pressure * phi / 1 atm.
  For ideal gases, phi = 1.

Reaction step 22.

Using solution 1.	Supersaturated Ca-SO4 water
Using kinetics 1.	

Kinetics 1.	

	Time step: 10000 seconds  (Incremented time: 20000 seconds)

	Rate name       Delta Moles Total Moles   Reactant        Coefficient

	Gypsum            2.813e-04   4.326e-03   Gypsum                    1

-----------------------------Solution composition------------------------------

	Elements           Molality       Moles

	Ca                2.136e-02   1.067e-02
	S                 2.136e-02   1.067e-02

----------------------------Description of solution----------------------------

                                       pH  =   7.078      Charge balance
                                       pe  =  -1.631      Adjusted to redox equilibrium
      Specific Conductance (µS/cm,  25°C)  = 3339
                          Density (g/cm³)  =   0.99982
                               Volume (L)  =   0.50139
                        Viscosity (mPa s)  =   0.90087
                        Activity of water  =   0.999
                 Ionic strength (mol/kgw)  =   5.670e-02
                       Mass of water (kg)  =   4.998e-01
                 Total alkalinity (eq/kg)  =   2.239e-16
                         Temperature (°C)  =  25.00
                  Electrical balance (eq)  =  -1.762e-11
 Percent error, 100*(Cat-|An|)/(Cat+|An|)  =  -0.00
                               Iterations  =  73 (185 overall)
                                  Total H  = 5.548891e+01
                                  Total O  = 2.778715e+01

----------------------------Distribution of species----------------------------

                                               Log       Log       Log    mole V
   Species          Molality    Activity  Molality  Activity     Gamma   cm³/mol

   OH-             1.507e-07   1.210e-07    -6.822    -6.917    -0.095     -3.85
   H+              9.853e-08   8.362e-08    -7.006    -7.078    -0.071      0.00
   H2O             5.551e+01   9.994e-01     1.744    -0.000     0.000     18.07
Ca            2.136e-02
   Ca+2            1.418e-02   6.482e-03    -1.848    -2.188    -0.340    -17.59
   CaSO4           7.179e-03   7.274e-03    -2.144    -2.138     0.006      7.50
   CaOH+           1.580e-08   1.286e-08    -7.801    -7.891    -0.089     (0)  
   CaHSO4+         4.912e-09   3.998e-09    -8.309    -8.398    -0.089     (0)  
H(0)          1.789e-14
   H2              8.946e-15   9.063e-15   -14.048   -14.043     0.006     28.61
O(0)          0.000e+00
   O2              0.000e+00   0.000e+00   -64.301   -64.295     0.006     30.40
S(-2)         1.249e-19
   HS-             7.906e-20   6.347e-20   -19.102   -19.197    -0.095     20.80
   H2S             4.580e-20   4.640e-20   -19.339   -19.333     0.006     36.27
   S-2             2.049e-25   9.168e-26   -24.688   -25.038    -0.349     (0)  
   (H2S)2          1.120e-40   1.135e-40   -39.951   -39.945     0.006     30.09
S(6)          2.136e-02
   SO4-2           1.418e-02   6.311e-03    -1.848    -2.200    -0.351     22.15
   CaSO4           7.179e-03   7.274e-03    -2.144    -2.138     0.006      7.50
   HSO4-           6.303e-08   5.130e-08    -7.200    -7.290    -0.089     40.47
   CaHSO4+         4.912e-09   3.998e-09    -8.309    -8.398    -0.089     (0)  

------------------------------Saturation indices-------------------------------

  Phase               SI** log IAP   log K(298 K,   1 atm)

  Anhydrite        -0.11     -4.39   -4.28  CaSO4
  Gypsum            0.19     -4.39   -4.58  CaSO4:2H2O
  H2(g)           -10.94    -14.04   -3.10  H2
  H2O(g)           -1.50     -0.00    1.50  H2O
  H2S(g)          -18.34    -26.28   -7.94  H2S
  O2(g)           -61.40    -64.30   -2.89  O2
  Sulfur          -13.32     -8.44    4.88  S

**For a gas, SI = log10(fugacity). Fugacity = pressure * phi / 1 atm.
  For ideal gases, phi = 1.

Reaction step 23.

Using solution 1.	Supersaturated Ca-SO4 water
Using kinetics 1.	

Kinetics 1.	

	Time step: 10000 seconds  (Incremented time: 30000 seconds)

	Rate name       Delta Moles Total Moles   Reactant        Coefficient

	Gypsum            1.542e-04   4.480e-03   Gypsum                    1

-----------------------------Solution composition------------------------------

	Elements           Molality       Moles

	Ca                2.105e-02   1.052e-02
	S                 2.105e-02   1.052e-02

----------------------------Description of solution----------------------------

                                       pH  =   7.077      Charge balance
                                       pe  =  -0.885      Adjusted to redox equilibrium
      Specific Conductance (µS/cm,  25°C)  = 3298
                          Density (g/cm³)  =   0.99978
                               Volume (L)  =   0.50138
                        Viscosity (mPa s)  =   0.90076
                        Activity of water  =   0.999
                 Ionic strength (mol/kgw)  =   5.599e-02
                       Mass of water (kg)  =   4.998e-01
                 Total alkalinity (eq/kg)  =   2.150e-16
                         Temperature (°C)  =  25.00
                  Electrical balance (eq)  =  -1.762e-11
 Percent error, 100*(Cat-|An|)/(Cat+|An|)  =  -0.00
                               Iterations  =  53 (129 overall)
                                  Total H  = 5.548830e+01
                                  Total O  = 2.778623e+01

----------------------------Distribution of species----------------------------

                                               Log       Log       Log    mole V
   Species          Molality    Activity  Molality  Activity     Gamma   cm³/mol

   OH-             1.503e-07   1.208e-07    -6.823    -6.918    -0.095     -3.85
   H+              9.860e-08   8.373e-08    -7.006    -7.077    -0.071      0.00
   H2O             5.551e+01   9.994e-01     1.744    -0.000     0.000     18.07
Ca            2.105e-02
   Ca+2            1.400e-02   6.422e-03    -1.854    -2.192    -0.338    -17.59
   CaSO4           7.050e-03   7.142e-03    -2.152    -2.146     0.006      7.50
   CaOH+           1.561e-08   1.272e-08    -7.806    -7.895    -0.089     (0)  
   CaHSO4+         4.825e-09   3.931e-09    -8.317    -8.406    -0.089     (0)  
H(0)          5.780e-16
   H2              2.890e-16   2.927e-16   -15.539   -15.534     0.006     28.61
O(0)          0.000e+00
   O2              0.000e+00   0.000e+00   -61.319   -61.313     0.006     30.40
S(-2)         1.348e-25
   HS-             8.527e-26   6.854e-26   -25.069   -25.164    -0.095     20.80
   H2S             4.953e-26   5.017e-26   -25.305   -25.300     0.006     36.27
   S-2             2.201e-31   9.886e-32   -30.657   -31.005    -0.348     (0)  
   (H2S)2          0.000e+00   0.000e+00   -51.883   -51.877     0.006     30.09
S(6)          2.105e-02
   SO4-2           1.400e-02   6.254e-03    -1.854    -2.204    -0.350     22.11
   CaSO4           7.050e-03   7.142e-03    -2.152    -2.146     0.006      7.50
   HSO4-           6.249e-08   5.091e-08    -7.204    -7.293    -0.089     40.47
   CaHSO4+         4.825e-09   3.931e-09    -8.317    -8.406    -0.089     (0)  

------------------------------Saturation indices-------------------------------

  Phase               SI** log IAP   log K(298 K,   1 atm)

  Anhydrite        -0.12     -4.40   -4.28  CaSO4
  Gypsum            0.19     -4.40   -4.58  CaSO4:2H2O
  H2(g)           -12.43    -15.53   -3.10  H2
  H2O(g)           -1.50     -0.00    1.50  H2O
  H2S(g)          -24.31    -32.24   -7.94  H2S
  O2(g)           -58.42    -61.31   -2.89  O2
  Sulfur          -17.80    -12.92    4.88  S

**For a gas, SI = log10(fugacity). Fugacity = pressure * phi / 1 atm.
  For ideal gases, phi = 1.

Reaction step 24.

Using solution 1.	Supersaturated Ca-SO4 water
Using kinetics 1.	

Kinetics 1.	

	Time step: 20000 seconds  (Incremented time: 50000 seconds)

	Rate name       Delta Moles Total Moles   Reactant        Coefficient

	Gypsum            1.847e-04   4.665e-03   Gypsum                    1

-----------------------------Solution composition------------------------------

	Elements           Molality       Moles

	Ca                2.068e-02   1.034e-02
	S                 2.068e-02   1.034e-02

----------------------------Description of solution----------------------------

                                       pH  =   7.076      Charge balance
                                       pe  =  -1.681      Adjusted to redox equilibrium
      Specific Conductance (µS/cm,  25°C)  = 3249
                          Density (g/cm³)  =   0.99974
                               Volume (L)  =   0.50137
                        Viscosity (mPa s)  =   0.90063
                        Activity of water  =   0.999
                 Ionic strength (mol/kgw)  =   5.513e-02
                       Mass of water (kg)  =   4.998e-01
                 Total alkalinity (eq/kg)  =   2.086e-16
                         Temperature (°C)  =  25.00
                  Electrical balance (eq)  =  -1.762e-11
 Percent error, 100*(Cat-|An|)/(Cat+|An|)  =  -0.00
                               Iterations  =  87 (235 overall)
                                  Total H  = 5.548756e+01
                                  Total O  = 2.778512e+01

----------------------------Distribution of species----------------------------

                                               Log       Log       Log    mole V
   Species          Molality    Activity  Molality  Activity     Gamma   cm³/mol

   OH-             1.499e-07   1.206e-07    -6.824    -6.919    -0.094     -3.86
   H+              9.869e-08   8.387e-08    -7.006    -7.076    -0.071      0.00
   H2O             5.551e+01   9.994e-01     1.744    -0.000     0.000     18.07
Ca            2.068e-02
   Ca+2            1.378e-02   6.349e-03    -1.861    -2.197    -0.337    -17.60
   CaSO4           6.896e-03   6.984e-03    -2.161    -2.156     0.006      7.50
   CaOH+           1.540e-08   1.256e-08    -7.813    -7.901    -0.089     (0)  
   CaHSO4+         4.721e-09   3.850e-09    -8.326    -8.415    -0.089     (0)  
H(0)          2.267e-14
   H2              1.134e-14   1.148e-14   -13.945   -13.940     0.006     28.61
O(0)          0.000e+00
   O2              0.000e+00   0.000e+00   -64.506   -64.501     0.006     30.40
S(-2)         3.161e-19
   HS-             1.997e-19   1.607e-19   -18.700   -18.794    -0.094     20.79
   H2S             1.164e-19   1.179e-19   -18.934   -18.929     0.006     36.27
   S-2             5.131e-25   2.315e-25   -24.290   -24.635    -0.346     (0)  
   (H2S)2          7.228e-40   7.321e-40   -39.141   -39.135     0.006     30.09
S(6)          2.068e-02
   SO4-2           1.378e-02   6.186e-03    -1.861    -2.209    -0.348     22.05
   CaSO4           6.896e-03   6.984e-03    -2.161    -2.156     0.006      7.50
   HSO4-           6.185e-08   5.044e-08    -7.209    -7.297    -0.089     40.46
   CaHSO4+         4.721e-09   3.850e-09    -8.326    -8.415    -0.089     (0)  

------------------------------Saturation indices-------------------------------

  Phase               SI** log IAP   log K(298 K,   1 atm)

  Anhydrite        -0.13     -4.41   -4.28  CaSO4
  Gypsum            0.18     -4.41   -4.58  CaSO4:2H2O
  H2(g)           -10.84    -13.94   -3.10  H2
  H2O(g)           -1.50     -0.00    1.50  H2O
  H2S(g)          -17.93    -25.87   -7.94  H2S
  O2(g)           -61.61    -64.50   -2.89  O2
  Sulfur          -13.02     -8.14    4.88  S

**For a gas, SI = log10(fugacity). Fugacity = pressure * phi / 1 atm.
  For ideal gases, phi = 1.

Reaction step 25.

Using solution 1.	Supersaturated Ca-SO4 water
Using kinetics 1.	

Kinetics 1.	

	Time step: 30000 seconds  (Incremented time: 80000 seconds)

	Rate name       Delta Moles Total Moles   Reactant        Coefficient

	Gypsum            1.617e-04   4.826e-03   Gypsum                    1

-----------------------------Solution composition------------------------------

	Elements           Molality       Moles

	Ca                2.035e-02   1.017e-02
	S                 2.035e-02   1.017e-02

----------------------------Description of solution----------------------------

                                       pH  =   7.076      Charge balance
                                       pe  =  -1.542      Adjusted to redox equilibrium
      Specific Conductance (µS/cm,  25°C)  = 3206
                          Density (g/cm³)  =   0.99970
                               Volume (L)  =   0.50136
                        Viscosity (mPa s)  =   0.90052
                        Activity of water  =   0.999
                 Ionic strength (mol/kgw)  =   5.437e-02
                       Mass of water (kg)  =   4.998e-01
                 Total alkalinity (eq/kg)  =   2.079e-16
                         Temperature (°C)  =  25.00
                  Electrical balance (eq)  =  -1.762e-11
 Percent error, 100*(Cat-|An|)/(Cat+|An|)  =  -0.00
                               Iterations  =  59 (159 overall)
                                  Total H  = 5.548691e+01
                                  Total O  = 2.778415e+01

----------------------------Distribution of species----------------------------

                                               Log       Log       Log    mole V
   Species          Molality    Activity  Molality  Activity     Gamma   cm³/mol

   OH-             1.495e-07   1.204e-07    -6.825    -6.919    -0.094     -3.86
   H+              9.877e-08   8.399e-08    -7.005    -7.076    -0.070      0.00
   H2O             5.551e+01   9.994e-01     1.744    -0.000     0.000     18.07
Ca            2.035e-02
   Ca+2            1.359e-02   6.285e-03    -1.867    -2.202    -0.335    -17.60
   CaSO4           6.761e-03   6.847e-03    -2.170    -2.165     0.005      7.50
   CaOH+           1.520e-08   1.241e-08    -7.818    -7.906    -0.088     (0)  
   CaHSO4+         4.630e-09   3.780e-09    -8.334    -8.423    -0.088     (0)  
H(0)          1.198e-14
   H2              5.988e-15   6.063e-15   -14.223   -14.217     0.005     28.61
O(0)          0.000e+00
   O2              0.000e+00   0.000e+00   -63.951   -63.946     0.005     30.40
S(-2)         2.437e-20
   HS-             1.538e-20   1.240e-20   -19.813   -19.907    -0.094     20.79
   H2S             8.990e-21   9.103e-21   -20.046   -20.041     0.005     36.27
   S-2             3.936e-26   1.783e-26   -25.405   -25.749    -0.344     (0)  
   (H2S)2          0.000e+00   0.000e+00   -41.365   -41.360     0.005     30.09
S(6)          2.035e-02
   SO4-2           1.359e-02   6.126e-03    -1.867    -2.213    -0.346     22.01
   CaSO4           6.761e-03   6.847e-03    -2.170    -2.165     0.005      7.50
   HSO4-           6.128e-08   5.002e-08    -7.213    -7.301    -0.088     40.46
   CaHSO4+         4.630e-09   3.780e-09    -8.334    -8.423    -0.088     (0)  

------------------------------Saturation indices-------------------------------

  Phase               SI** log IAP   log K(298 K,   1 atm)

  Anhydrite        -0.14     -4.41   -4.28  CaSO4
  Gypsum            0.17     -4.42   -4.58  CaSO4:2H2O
  H2(g)           -11.12    -14.22   -3.10  H2
  H2O(g)           -1.50     -0.00    1.50  H2O
  H2S(g)          -19.05    -26.98   -7.94  H2S
  O2(g)           -61.05    -63.95   -2.89  O2
  Sulfur          -13.86     -8.97    4.88  S

**For a gas, SI = log10(fugacity). Fugacity = pressure * phi / 1 atm.
  For ideal gases, phi = 1.

Reaction step 26.

Using solution 1.	Supersaturated Ca-SO4 water
Using kinetics 1.	

Kinetics 1.	

	Time step: 20000 seconds  (Incremented time: 100000 seconds)

	Rate name       Delta Moles Total Moles   Reactant        Coefficient

	Gypsum            7.441e-05   4.901e-03   Gypsum                    1

-----------------------------Solution composition------------------------------

	Elements           Molality       Moles

	Ca                2.021e-02   1.010e-02
	S                 2.021e-02   1.010e-02

----------------------------Description of solution----------------------------

                                       pH  =   7.075      Charge balance
                                       pe  =  -1.241      Adjusted to redox equilibrium
      Specific Conductance (µS/cm,  25°C)  = 3186
                          Density (g/cm³)  =   0.99968
                               Volume (L)  =   0.50136
                        Viscosity (mPa s)  =   0.90047
                        Activity of water  =   0.999
                 Ionic strength (mol/kgw)  =   5.402e-02
                       Mass of water (kg)  =   4.998e-01
                 Total alkalinity (eq/kg)  =   2.081e-16
                         Temperature (°C)  =  25.00
                  Electrical balance (eq)  =  -2.422e-11
 Percent error, 100*(Cat-|An|)/(Cat+|An|)  =  -0.00
                               Iterations  =  33 (81 overall)
                                  Total H  = 5.548661e+01
                                  Total O  = 2.778370e+01

----------------------------Distribution of species----------------------------

                                               Log       Log       Log    mole V
   Species          Molality    Activity  Molality  Activity     Gamma   cm³/mol

   OH-             1.493e-07   1.204e-07    -6.826    -6.920    -0.094     -3.86
   H+              9.881e-08   8.405e-08    -7.005    -7.075    -0.070      0.00
   H2O             5.551e+01   9.994e-01     1.744    -0.000     0.000     18.07
Ca            2.021e-02
   Ca+2            1.351e-02   6.256e-03    -1.869    -2.204    -0.334    -17.60
   CaSO4           6.700e-03   6.784e-03    -2.174    -2.169     0.005      7.50
   CaOH+           1.512e-08   1.235e-08    -7.821    -7.909    -0.088     (0)  
   CaHSO4+         4.589e-09   3.748e-09    -8.338    -8.426    -0.088     (0)  
H(0)          2.999e-15
   H2              1.499e-15   1.518e-15   -14.824   -14.819     0.005     28.61
O(0)          0.000e+00
   O2              0.000e+00   0.000e+00   -62.748   -62.743     0.005     30.40
S(-2)         9.537e-23
   HS-             6.017e-23   4.851e-23   -22.221   -22.314    -0.094     20.79
   H2S             3.521e-23   3.565e-23   -22.453   -22.448     0.005     36.27
   S-2             1.536e-28   6.971e-29   -27.814   -28.157    -0.343     (0)  
   (H2S)2          0.000e+00   0.000e+00   -46.180   -46.174     0.005     30.09
S(6)          2.021e-02
   SO4-2           1.351e-02   6.098e-03    -1.869    -2.215    -0.345     21.98
   CaSO4           6.700e-03   6.784e-03    -2.174    -2.169     0.005      7.50
   HSO4-           6.101e-08   4.983e-08    -7.215    -7.303    -0.088     40.46
   CaHSO4+         4.589e-09   3.748e-09    -8.338    -8.426    -0.088     (0)  

------------------------------Saturation indices-------------------------------

  Phase               SI** log IAP   log K(298 K,   1 atm)

  Anhydrite        -0.14     -4.42   -4.28  CaSO4
  Gypsum            0.16     -4.42   -4.58  CaSO4:2H2O
  H2(g)           -11.72    -14.82   -3.10  H2
  H2O(g)           -1.50     -0.00    1.50  H2O
  H2S(g)          -21.45    -29.39   -7.94  H2S
  O2(g)           -59.85    -62.74   -2.89  O2
  Sulfur          -15.66    -10.78    4.88  S

**For a gas, SI = log10(fugacity). Fugacity = pressure * phi / 1 atm.
  For ideal gases, phi = 1.

------------------
End of simulation.
------------------

------------------------------------
Reading input data for simulation 2.
------------------------------------

----------------------------------
End of Run after 0.022792 Seconds.
----------------------------------

