   Input file: /home/zhouw/Documents/Codes/ReactiveSoluteTransport/Benchmark/gypsum_single_fracture_10cm_ap5mm/results_total_injection_reference_volume_precipitation_20260426_174012/phreeqc/tt_1e03/tt_1e03.pqi
  Output file: /home/zhouw/Documents/Codes/ReactiveSoluteTransport/Benchmark/gypsum_single_fracture_10cm_ap5mm/results_total_injection_reference_volume_precipitation_20260426_174012/phreeqc/tt_1e03/tt_1e03.pqo
Database file: /home/zhouw/Documents/Codes/phreeqc-3.8.6-17100/database/phreeqc.dat

------------------
Reading data base.
------------------

	SOLUTION_MASTER_SPECIES
	SOLUTION_SPECIES
	PHASES
	GAS_BINARY_PARAMETERS
	EXCHANGE_MASTER_SPECIES
	EXCHANGE_SPECIES
	SURFACE_MASTER_SPECIES
	SURFACE_SPECIES
	MEAN_GAMMAS
	RATES
	END
------------------------------------
Reading input data for simulation 1.
------------------------------------

	TITLE Kinetic gypsum precipitation from supersaturated water for t_cross=1.000000e+03 s
	SOLUTION 1 Supersaturated Ca-SO4 water
	    temp    25.0
	    units   mmol/kgw
	    pH      7.0 charge
	    Ca      3.000000000000e+01
	    S(6)    3.000000000000e+01
	    water  5.000000000000e+00
	RATES
	Gypsum
	start
	  10 omega = SR("Gypsum")
	  20 IF omega <= 1 THEN SAVE 0 : END
	  30 A = PARM(1)
	  40 k1 = PARM(2)
	  50 k2 = PARM(3)
	  60 x = SQRT(omega) - 1
	  70 rate = -A * (k1 * x^10 + k2 * x^2)
	  80 SAVE rate * TIME
	end
	KINETICS 1
	Gypsum
	    m      0.0
	    m0     0.0
	    parms  2.000000000000e-02  1.000000000000e+00  5.000000000000e-07
	    tol    1e-8
	    steps  1 1 1 2 3 2 10 10 20 30 20 100 100 200 300 200 1000 1000 2000 3000 2000 10000 10000 20000 30000 20000
	    cvode  true
	INCREMENTAL_REACTIONS true
	SELECTED_OUTPUT
	    file                tt_1e03.sel
	    reset               false
	    totals              Ca S(6)
	    kinetics            Gypsum
	    saturation_indices  Gypsum
	USER_PUNCH
	    headings Time_s pH SI_Gypsum SR_Gypsum V_Precip_cm3 DV_ref_m3
	start
	  10 PUNCH TOTAL_TIME
	  20 PUNCH -LA("H+")
	  30 PUNCH SI("Gypsum")
	  40 PUNCH SR("Gypsum")
	  50 v_precip = KIN("Gypsum") * 73.9
	  60 PUNCH v_precip
	  70 PUNCH -v_precip * 1e-6
	end
	END
-----
TITLE
-----

 Kinetic gypsum precipitation from supersaturated water for t_cross=1.000000e+03 s

-------------------------------------------
Beginning of initial solution calculations.
-------------------------------------------

Initial solution 1.	Supersaturated Ca-SO4 water

-----------------------------Solution composition------------------------------

	Elements           Molality       Moles

	Ca                3.000e-02   1.500e-01
	S(6)              3.000e-02   1.500e-01

----------------------------Description of solution----------------------------

                                       pH  =   7.092      Charge balance
                                       pe  =   4.000    
      Specific Conductance (µS/cm,  25°C)  = 4446
                          Density (g/cm³)  =   1.00092
                               Volume (L)  =   5.01579
                        Viscosity (mPa s)  =   0.90373
                        Activity of water  =   0.999
                 Ionic strength (mol/kgw)  =   7.635e-02
                       Mass of water (kg)  =   5.000e+00
                 Total alkalinity (eq/kg)  =   2.120e-16
                         Temperature (°C)  =  25.00
                  Electrical balance (eq)  =   1.223e-10
 Percent error, 100*(Cat-|An|)/(Cat+|An|)  =   0.00
                               Iterations  =   5
                                  Total H  = 5.550622e+02
                                  Total O  = 2.781311e+02

----------------------------Distribution of species----------------------------

                                               Log       Log       Log    mole V
   Species          Molality    Activity  Molality  Activity     Gamma   cm³/mol

   OH-             1.600e-07   1.251e-07    -6.796    -6.903    -0.107     -3.79
   H+              9.668e-08   8.087e-08    -7.015    -7.092    -0.078      0.00
   H2O             5.551e+01   9.992e-01     1.744    -0.000     0.000     18.07
Ca            3.000e-02
   Ca+2            1.909e-02   8.046e-03    -1.719    -2.094    -0.375    -17.51
   CaSO4           1.091e-02   1.111e-02    -1.962    -1.954     0.008      7.50
   CaOH+           2.071e-08   1.650e-08    -7.684    -7.783    -0.099     (0)  
   CaHSO4+         7.410e-09   5.903e-09    -8.130    -8.229    -0.099     (0)  
H(0)          9.098e-26
   H2              4.549e-26   4.630e-26   -25.342   -25.334     0.008     28.61
O(0)          0.000e+00
   O2              0.000e+00   0.000e+00   -41.719   -41.712     0.008     30.40
S(6)          3.000e-02
   SO4-2           1.909e-02   7.762e-03    -1.719    -2.110    -0.391     23.29
   CaSO4           1.091e-02   1.111e-02    -1.962    -1.954     0.008      7.50
   HSO4-           7.660e-08   6.102e-08    -7.116    -7.215    -0.099     40.50
   CaHSO4+         7.410e-09   5.903e-09    -8.130    -8.229    -0.099     (0)  

------------------------------Saturation indices-------------------------------

  Phase               SI** log IAP   log K(298 K,   1 atm)

  Anhydrite         0.07     -4.20   -4.28  CaSO4
  Gypsum            0.38     -4.21   -4.58  CaSO4:2H2O
  H2(g)           -22.23    -25.33   -3.10  H2
  H2O(g)           -1.50     -0.00    1.50  H2O
  O2(g)           -38.82    -41.71   -2.89  O2

**For a gas, SI = log10(fugacity). Fugacity = pressure * phi / 1 atm.
  For ideal gases, phi = 1.

-----------------------------------------
Beginning of batch-reaction calculations.
-----------------------------------------

Reaction step 1.

Using solution 1.	Supersaturated Ca-SO4 water
Using kinetics 1.	

Kinetics 1.	

	Time step: 1 seconds  (Incremented time: 1 seconds)

	Rate name       Delta Moles Total Moles   Reactant        Coefficient

	Gypsum            4.515e-05   4.515e-05   Gypsum                    1

-----------------------------Solution composition------------------------------

	Elements           Molality       Moles

	Ca                2.999e-02   1.500e-01
	S                 2.999e-02   1.500e-01

----------------------------Description of solution----------------------------

                                       pH  =   7.092      Charge balance
                                       pe  =  -1.609      Adjusted to redox equilibrium
      Specific Conductance (µS/cm,  25°C)  = 4444
                          Density (g/cm³)  =   1.00092
                               Volume (L)  =   5.01579
                        Viscosity (mPa s)  =   0.90373
                        Activity of water  =   0.999
                 Ionic strength (mol/kgw)  =   7.633e-02
                       Mass of water (kg)  =   5.000e+00
                 Total alkalinity (eq/kg)  =   1.970e-16
                         Temperature (°C)  =  25.00
                  Electrical balance (eq)  =   1.223e-10
 Percent error, 100*(Cat-|An|)/(Cat+|An|)  =   0.00
                               Iterations  =  70 (171 overall)
                                  Total H  = 5.550620e+02
                                  Total O  = 2.781308e+02

----------------------------Distribution of species----------------------------

                                               Log       Log       Log    mole V
   Species          Molality    Activity  Molality  Activity     Gamma   cm³/mol

   OH-             1.600e-07   1.251e-07    -6.796    -6.903    -0.107     -3.79
   H+              9.668e-08   8.087e-08    -7.015    -7.092    -0.078      0.00
   H2O             5.551e+01   9.992e-01     1.744    -0.000     0.000     18.07
Ca            2.999e-02
   Ca+2            1.908e-02   8.045e-03    -1.719    -2.094    -0.375    -17.51
   CaSO4           1.091e-02   1.110e-02    -1.962    -1.955     0.008      7.50
   CaOH+           2.071e-08   1.650e-08    -7.684    -7.783    -0.099     (0)  
   CaHSO4+         7.408e-09   5.901e-09    -8.130    -8.229    -0.099     (0)  
H(0)          1.503e-14
   H2              7.516e-15   7.649e-15   -14.124   -14.116     0.008     28.61
O(0)          0.000e+00
   O2              0.000e+00   0.000e+00   -64.156   -64.148     0.008     30.40
S(-2)         7.566e-20
   HS-             4.903e-20   3.833e-20   -19.310   -19.416    -0.107     20.83
   H2S             2.663e-20   2.710e-20   -19.575   -19.567     0.008     36.27
   S-2             1.398e-25   5.725e-26   -24.855   -25.242    -0.388     (0)  
   (H2S)2          0.000e+00   0.000e+00   -40.420   -40.412     0.008     30.09
S(6)          2.999e-02
   SO4-2           1.908e-02   7.760e-03    -1.719    -2.110    -0.391     23.28
   CaSO4           1.091e-02   1.110e-02    -1.962    -1.955     0.008      7.50
   HSO4-           7.659e-08   6.101e-08    -7.116    -7.215    -0.099     40.50
   CaHSO4+         7.408e-09   5.901e-09    -8.130    -8.229    -0.099     (0)  

------------------------------Saturation indices-------------------------------

  Phase               SI** log IAP   log K(298 K,   1 atm)

  Anhydrite         0.07     -4.20   -4.28  CaSO4
  Gypsum            0.38     -4.21   -4.58  CaSO4:2H2O
  H2(g)           -11.02    -14.12   -3.10  H2
  H2O(g)           -1.50     -0.00    1.50  H2O
  H2S(g)          -18.57    -26.51   -7.94  H2S
  O2(g)           -61.26    -64.15   -2.89  O2
  Sulfur          -13.48     -8.60    4.88  S

**For a gas, SI = log10(fugacity). Fugacity = pressure * phi / 1 atm.
  For ideal gases, phi = 1.

Reaction step 2.

Using solution 1.	Supersaturated Ca-SO4 water
Using kinetics 1.	

Kinetics 1.	

	Time step: 1 seconds  (Incremented time: 2 seconds)

	Rate name       Delta Moles Total Moles   Reactant        Coefficient

	Gypsum            4.492e-05   9.007e-05   Gypsum                    1

-----------------------------Solution composition------------------------------

	Elements           Molality       Moles

	Ca                2.998e-02   1.499e-01
	S                 2.998e-02   1.499e-01

----------------------------Description of solution----------------------------

                                       pH  =   7.092      Charge balance
                                       pe  =  -1.777      Adjusted to redox equilibrium
      Specific Conductance (µS/cm,  25°C)  = 4443
                          Density (g/cm³)  =   1.00092
                               Volume (L)  =   5.01579
                        Viscosity (mPa s)  =   0.90373
                        Activity of water  =   0.999
                 Ionic strength (mol/kgw)  =   7.631e-02
                       Mass of water (kg)  =   5.000e+00
                 Total alkalinity (eq/kg)  =   1.857e-16
                         Temperature (°C)  =  25.00
                  Electrical balance (eq)  =   1.223e-10
 Percent error, 100*(Cat-|An|)/(Cat+|An|)  =   0.00
                               Iterations  =  16 (38 overall)
                                  Total H  = 5.550618e+02
                                  Total O  = 2.781305e+02

----------------------------Distribution of species----------------------------

                                               Log       Log       Log    mole V
   Species          Molality    Activity  Molality  Activity     Gamma   cm³/mol

   OH-             1.600e-07   1.251e-07    -6.796    -6.903    -0.107     -3.79
   H+              9.668e-08   8.087e-08    -7.015    -7.092    -0.078      0.00
   H2O             5.551e+01   9.992e-01     1.744    -0.000     0.000     18.07
Ca            2.998e-02
   Ca+2            1.908e-02   8.043e-03    -1.719    -2.095    -0.375    -17.51
   CaSO4           1.090e-02   1.110e-02    -1.962    -1.955     0.008      7.50
   CaOH+           2.070e-08   1.649e-08    -7.684    -7.783    -0.099     (0)  
   CaHSO4+         7.405e-09   5.899e-09    -8.130    -8.229    -0.099     (0)  
H(0)          3.266e-14
   H2              1.633e-14   1.662e-14   -13.787   -13.779     0.008     28.61
O(0)          0.000e+00
   O2              0.000e+00   0.000e+00   -64.829   -64.822     0.008     30.40
S(-2)         1.685e-18
   HS-             1.092e-18   8.536e-19   -17.962   -18.069    -0.107     20.83
   H2S             5.931e-19   6.036e-19   -18.227   -18.219     0.008     36.27
   S-2             3.113e-24   1.275e-24   -23.507   -23.895    -0.388     (0)  
   (H2S)2          1.886e-38   1.920e-38   -37.724   -37.717     0.008     30.09
S(6)          2.998e-02
   SO4-2           1.908e-02   7.759e-03    -1.719    -2.110    -0.391     23.28
   CaSO4           1.090e-02   1.110e-02    -1.962    -1.955     0.008      7.50
   HSO4-           7.658e-08   6.101e-08    -7.116    -7.215    -0.099     40.50
   CaHSO4+         7.405e-09   5.899e-09    -8.130    -8.229    -0.099     (0)  

------------------------------Saturation indices-------------------------------

  Phase               SI** log IAP   log K(298 K,   1 atm)

  Anhydrite         0.07     -4.20   -4.28  CaSO4
  Gypsum            0.38     -4.21   -4.58  CaSO4:2H2O
  H2(g)           -10.68    -13.78   -3.10  H2
  H2O(g)           -1.50     -0.00    1.50  H2O
  H2S(g)          -17.22    -25.16   -7.94  H2S
  O2(g)           -61.93    -64.82   -2.89  O2
  Sulfur          -12.47     -7.59    4.88  S

**For a gas, SI = log10(fugacity). Fugacity = pressure * phi / 1 atm.
  For ideal gases, phi = 1.

Reaction step 3.

Using solution 1.	Supersaturated Ca-SO4 water
Using kinetics 1.	

Kinetics 1.	

	Time step: 1 seconds  (Incremented time: 3 seconds)

	Rate name       Delta Moles Total Moles   Reactant        Coefficient

	Gypsum            4.468e-05   1.347e-04   Gypsum                    1

-----------------------------Solution composition------------------------------

	Elements           Molality       Moles

	Ca                2.997e-02   1.499e-01
	S                 2.997e-02   1.499e-01

----------------------------Description of solution----------------------------

                                       pH  =   7.092      Charge balance
                                       pe  =  -1.838      Adjusted to redox equilibrium
      Specific Conductance (µS/cm,  25°C)  = 4442
                          Density (g/cm³)  =   1.00092
                               Volume (L)  =   5.01578
                        Viscosity (mPa s)  =   0.90373
                        Activity of water  =   0.999
                 Ionic strength (mol/kgw)  =   7.629e-02
                       Mass of water (kg)  =   5.000e+00
                 Total alkalinity (eq/kg)  =   1.928e-16
                         Temperature (°C)  =  25.00
                  Electrical balance (eq)  =   1.223e-10
 Percent error, 100*(Cat-|An|)/(Cat+|An|)  =   0.00
                               Iterations  =  16 (38 overall)
                                  Total H  = 5.550616e+02
                                  Total O  = 2.781303e+02

----------------------------Distribution of species----------------------------

                                               Log       Log       Log    mole V
   Species          Molality    Activity  Molality  Activity     Gamma   cm³/mol

   OH-             1.600e-07   1.250e-07    -6.796    -6.903    -0.107     -3.79
   H+              9.669e-08   8.087e-08    -7.015    -7.092    -0.078      0.00
   H2O             5.551e+01   9.992e-01     1.744    -0.000     0.000     18.07
Ca            2.997e-02
   Ca+2            1.907e-02   8.042e-03    -1.720    -2.095    -0.375    -17.51
   CaSO4           1.090e-02   1.109e-02    -1.963    -1.955     0.008      7.50
   CaOH+           2.070e-08   1.649e-08    -7.684    -7.783    -0.099     (0)  
   CaHSO4+         7.402e-09   5.897e-09    -8.131    -8.229    -0.099     (0)  
H(0)          4.307e-14
   H2              2.153e-14   2.192e-14   -13.667   -13.659     0.008     28.61
O(0)          0.000e+00
   O2              0.000e+00   0.000e+00   -65.070   -65.062     0.008     30.40
S(-2)         5.097e-18
   HS-             3.303e-18   2.582e-18   -17.481   -17.588    -0.107     20.83
   H2S             1.794e-18   1.826e-18   -17.746   -17.738     0.008     36.27
   S-2             9.415e-24   3.857e-24   -23.026   -23.414    -0.388     (0)  
   (H2S)2          1.726e-37   1.757e-37   -36.763   -36.755     0.008     30.09
S(6)          2.997e-02
   SO4-2           1.907e-02   7.757e-03    -1.720    -2.110    -0.391     23.28
   CaSO4           1.090e-02   1.109e-02    -1.963    -1.955     0.008      7.50
   HSO4-           7.656e-08   6.100e-08    -7.116    -7.215    -0.099     40.50
   CaHSO4+         7.402e-09   5.897e-09    -8.131    -8.229    -0.099     (0)  

------------------------------Saturation indices-------------------------------

  Phase               SI** log IAP   log K(298 K,   1 atm)

  Anhydrite         0.07     -4.20   -4.28  CaSO4
  Gypsum            0.38     -4.21   -4.58  CaSO4:2H2O
  H2(g)           -10.56    -13.66   -3.10  H2
  H2O(g)           -1.50     -0.00    1.50  H2O
  H2S(g)          -16.74    -24.68   -7.94  H2S
  O2(g)           -62.17    -65.06   -2.89  O2
  Sulfur          -12.11     -7.23    4.88  S

**For a gas, SI = log10(fugacity). Fugacity = pressure * phi / 1 atm.
  For ideal gases, phi = 1.

Reaction step 4.

Using solution 1.	Supersaturated Ca-SO4 water
Using kinetics 1.	

Kinetics 1.	

	Time step: 2 seconds  (Incremented time: 5 seconds)

	Rate name       Delta Moles Total Moles   Reactant        Coefficient

	Gypsum            8.868e-05   2.234e-04   Gypsum                    1

-----------------------------Solution composition------------------------------

	Elements           Molality       Moles

	Ca                2.996e-02   1.498e-01
	S                 2.996e-02   1.498e-01

----------------------------Description of solution----------------------------

                                       pH  =   7.092      Charge balance
                                       pe  =  -1.576      Adjusted to redox equilibrium
      Specific Conductance (µS/cm,  25°C)  = 4440
                          Density (g/cm³)  =   1.00092
                               Volume (L)  =   5.01578
                        Viscosity (mPa s)  =   0.90372
                        Activity of water  =   0.999
                 Ionic strength (mol/kgw)  =   7.625e-02
                       Mass of water (kg)  =   5.000e+00
                 Total alkalinity (eq/kg)  =   1.903e-16
                         Temperature (°C)  =  25.00
                  Electrical balance (eq)  =   1.222e-10
 Percent error, 100*(Cat-|An|)/(Cat+|An|)  =   0.00
                               Iterations  =  20 (50 overall)
                                  Total H  = 5.550613e+02
                                  Total O  = 2.781297e+02

----------------------------Distribution of species----------------------------

                                               Log       Log       Log    mole V
   Species          Molality    Activity  Molality  Activity     Gamma   cm³/mol

   OH-             1.599e-07   1.250e-07    -6.796    -6.903    -0.107     -3.79
   H+              9.669e-08   8.088e-08    -7.015    -7.092    -0.078      0.00
   H2O             5.551e+01   9.992e-01     1.744    -0.000     0.000     18.07
Ca            2.996e-02
   Ca+2            1.906e-02   8.039e-03    -1.720    -2.095    -0.375    -17.51
   CaSO4           1.089e-02   1.109e-02    -1.963    -1.955     0.008      7.50
   CaOH+           2.069e-08   1.648e-08    -7.684    -7.783    -0.099     (0)  
   CaHSO4+         7.397e-09   5.894e-09    -8.131    -8.230    -0.099     (0)  
H(0)          1.289e-14
   H2              6.447e-15   6.562e-15   -14.191   -14.183     0.008     28.61
O(0)          0.000e+00
   O2              0.000e+00   0.000e+00   -64.022   -64.015     0.008     30.40
S(-2)         4.095e-20
   HS-             2.653e-20   2.074e-20   -19.576   -19.683    -0.107     20.83
   H2S             1.441e-20   1.467e-20   -19.841   -19.834     0.008     36.27
   S-2             7.562e-26   3.098e-26   -25.121   -25.509    -0.388     (0)  
   (H2S)2          0.000e+00   0.000e+00   -40.953   -40.945     0.008     30.09
S(6)          2.996e-02
   SO4-2           1.906e-02   7.755e-03    -1.720    -2.110    -0.391     23.28
   CaSO4           1.089e-02   1.109e-02    -1.963    -1.955     0.008      7.50
   HSO4-           7.654e-08   6.098e-08    -7.116    -7.215    -0.099     40.50
   CaHSO4+         7.397e-09   5.894e-09    -8.131    -8.230    -0.099     (0)  

------------------------------Saturation indices-------------------------------

  Phase               SI** log IAP   log K(298 K,   1 atm)

  Anhydrite         0.07     -4.21   -4.28  CaSO4
  Gypsum            0.38     -4.21   -4.58  CaSO4:2H2O
  H2(g)           -11.08    -14.18   -3.10  H2
  H2O(g)           -1.50     -0.00    1.50  H2O
  H2S(g)          -18.84    -26.78   -7.94  H2S
  O2(g)           -61.12    -64.01   -2.89  O2
  Sulfur          -13.68     -8.80    4.88  S

**For a gas, SI = log10(fugacity). Fugacity = pressure * phi / 1 atm.
  For ideal gases, phi = 1.

Reaction step 5.

Using solution 1.	Supersaturated Ca-SO4 water
Using kinetics 1.	

Kinetics 1.	

	Time step: 3 seconds  (Incremented time: 8 seconds)

	Rate name       Delta Moles Total Moles   Reactant        Coefficient

	Gypsum            1.313e-04   3.548e-04   Gypsum                    1

-----------------------------Solution composition------------------------------

	Elements           Molality       Moles

	Ca                2.993e-02   1.496e-01
	S                 2.993e-02   1.496e-01

----------------------------Description of solution----------------------------

                                       pH  =   7.092      Charge balance
                                       pe  =  -1.716      Adjusted to redox equilibrium
      Specific Conductance (µS/cm,  25°C)  = 4437
                          Density (g/cm³)  =   1.00091
                               Volume (L)  =   5.01577
                        Viscosity (mPa s)  =   0.90371
                        Activity of water  =   0.999
                 Ionic strength (mol/kgw)  =   7.619e-02
                       Mass of water (kg)  =   5.000e+00
                 Total alkalinity (eq/kg)  =   2.039e-16
                         Temperature (°C)  =  25.00
                  Electrical balance (eq)  =   1.220e-10
 Percent error, 100*(Cat-|An|)/(Cat+|An|)  =   0.00
                               Iterations  =  24 (58 overall)
                                  Total H  = 5.550607e+02
                                  Total O  = 2.781290e+02

----------------------------Distribution of species----------------------------

                                               Log       Log       Log    mole V
   Species          Molality    Activity  Molality  Activity     Gamma   cm³/mol

   OH-             1.599e-07   1.250e-07    -6.796    -6.903    -0.107     -3.79
   H+              9.669e-08   8.089e-08    -7.015    -7.092    -0.078      0.00
   H2O             5.551e+01   9.992e-01     1.744    -0.000     0.000     18.07
Ca            2.993e-02
   Ca+2            1.905e-02   8.034e-03    -1.720    -2.095    -0.375    -17.51
   CaSO4           1.088e-02   1.107e-02    -1.963    -1.956     0.008      7.50
   CaOH+           2.067e-08   1.647e-08    -7.685    -7.783    -0.099     (0)  
   CaHSO4+         7.390e-09   5.888e-09    -8.131    -8.230    -0.099     (0)  
H(0)          2.467e-14
   H2              1.233e-14   1.255e-14   -13.909   -13.901     0.008     28.61
O(0)          0.000e+00
   O2              0.000e+00   0.000e+00   -64.586   -64.578     0.008     30.40
S(-2)         5.482e-19
   HS-             3.552e-19   2.777e-19   -18.450   -18.556    -0.107     20.83
   H2S             1.930e-19   1.964e-19   -18.714   -18.707     0.008     36.27
   S-2             1.012e-24   4.147e-25   -23.995   -24.382    -0.387     (0)  
   (H2S)2          1.997e-39   2.033e-39   -38.700   -38.692     0.008     30.09
S(6)          2.993e-02
   SO4-2           1.905e-02   7.751e-03    -1.720    -2.111    -0.391     23.28
   CaSO4           1.088e-02   1.107e-02    -1.963    -1.956     0.008      7.50
   HSO4-           7.650e-08   6.095e-08    -7.116    -7.215    -0.099     40.50
   CaHSO4+         7.390e-09   5.888e-09    -8.131    -8.230    -0.099     (0)  

------------------------------Saturation indices-------------------------------

  Phase               SI** log IAP   log K(298 K,   1 atm)

  Anhydrite         0.07     -4.21   -4.28  CaSO4
  Gypsum            0.38     -4.21   -4.58  CaSO4:2H2O
  H2(g)           -10.80    -13.90   -3.10  H2
  H2O(g)           -1.50     -0.00    1.50  H2O
  H2S(g)          -17.71    -25.65   -7.94  H2S
  O2(g)           -61.69    -64.58   -2.89  O2
  Sulfur          -12.84     -7.96    4.88  S

**For a gas, SI = log10(fugacity). Fugacity = pressure * phi / 1 atm.
  For ideal gases, phi = 1.

Reaction step 6.

Using solution 1.	Supersaturated Ca-SO4 water
Using kinetics 1.	

Kinetics 1.	

	Time step: 2 seconds  (Incremented time: 10 seconds)

	Rate name       Delta Moles Total Moles   Reactant        Coefficient

	Gypsum            8.644e-05   4.412e-04   Gypsum                    1

-----------------------------Solution composition------------------------------

	Elements           Molality       Moles

	Ca                2.991e-02   1.496e-01
	S                 2.991e-02   1.496e-01

----------------------------Description of solution----------------------------

                                       pH  =   7.092      Charge balance
                                       pe  =  11.623      Adjusted to redox equilibrium
      Specific Conductance (µS/cm,  25°C)  = 4435
                          Density (g/cm³)  =   1.00091
                               Volume (L)  =   5.01577
                        Viscosity (mPa s)  =   0.90371
                        Activity of water  =   0.999
                 Ionic strength (mol/kgw)  =   7.615e-02
                       Mass of water (kg)  =   5.000e+00
                 Total alkalinity (eq/kg)  =   1.970e-16
                         Temperature (°C)  =  25.00
                  Electrical balance (eq)  =   1.220e-10
 Percent error, 100*(Cat-|An|)/(Cat+|An|)  =   0.00
                               Iterations  =  30 (70 overall)
                                  Total H  = 5.550604e+02
                                  Total O  = 2.781284e+02

----------------------------Distribution of species----------------------------

                                               Log       Log       Log    mole V
   Species          Molality    Activity  Molality  Activity     Gamma   cm³/mol

   OH-             1.599e-07   1.250e-07    -6.796    -6.903    -0.107     -3.79
   H+              9.670e-08   8.089e-08    -7.015    -7.092    -0.078      0.00
   H2O             5.551e+01   9.992e-01     1.744    -0.000     0.000     18.07
Ca            2.991e-02
   Ca+2            1.904e-02   8.032e-03    -1.720    -2.095    -0.375    -17.51
   CaSO4           1.087e-02   1.107e-02    -1.964    -1.956     0.008      7.50
   CaOH+           2.066e-08   1.646e-08    -7.685    -7.783    -0.099     (0)  
   CaHSO4+         7.384e-09   5.884e-09    -8.132    -8.230    -0.099     (0)  
H(0)          0.000e+00
   H2              0.000e+00   0.000e+00   -40.587   -40.580     0.008     28.61
O(0)          1.180e-11
   O2              5.898e-12   6.003e-12   -11.229   -11.222     0.008     30.40
S(-2)         0.000e+00
   HS-             0.000e+00   0.000e+00  -125.163  -125.270    -0.107     20.83
   H2S             0.000e+00   0.000e+00  -125.428  -125.420     0.008     36.27
   S-2             0.000e+00   0.000e+00  -130.708  -131.096    -0.387     (0)  
   (H2S)2          0.000e+00   0.000e+00  -252.126  -252.118     0.008     30.09
S(6)          2.991e-02
   SO4-2           1.904e-02   7.748e-03    -1.720    -2.111    -0.390     23.28
   CaSO4           1.087e-02   1.107e-02    -1.964    -1.956     0.008      7.50
   HSO4-           7.647e-08   6.093e-08    -7.116    -7.215    -0.099     40.50
   CaHSO4+         7.384e-09   5.884e-09    -8.132    -8.230    -0.099     (0)  

------------------------------Saturation indices-------------------------------

  Phase               SI** log IAP   log K(298 K,   1 atm)

  Anhydrite         0.07     -4.21   -4.28  CaSO4
  Gypsum            0.38     -4.21   -4.58  CaSO4:2H2O
  H2(g)           -37.48    -40.58   -3.10  H2
  H2O(g)           -1.50     -0.00    1.50  H2O
  H2S(g)         -124.43   -132.36   -7.94  H2S
  O2(g)            -8.33    -11.22   -2.89  O2
  Sulfur          -92.87    -87.99    4.88  S

**For a gas, SI = log10(fugacity). Fugacity = pressure * phi / 1 atm.
  For ideal gases, phi = 1.

Reaction step 7.

Using solution 1.	Supersaturated Ca-SO4 water
Using kinetics 1.	

Kinetics 1.	

	Time step: 10 seconds  (Incremented time: 20 seconds)

	Rate name       Delta Moles Total Moles   Reactant        Coefficient

	Gypsum            4.196e-04   8.608e-04   Gypsum                    1

-----------------------------Solution composition------------------------------

	Elements           Molality       Moles

	Ca                2.983e-02   1.491e-01
	S                 2.983e-02   1.491e-01

----------------------------Description of solution----------------------------

                                       pH  =   7.092      Charge balance
                                       pe  =  11.623      Adjusted to redox equilibrium
      Specific Conductance (µS/cm,  25°C)  = 4424
                          Density (g/cm³)  =   1.00090
                               Volume (L)  =   5.01575
                        Viscosity (mPa s)  =   0.90368
                        Activity of water  =   0.999
                 Ionic strength (mol/kgw)  =   7.597e-02
                       Mass of water (kg)  =   5.000e+00
                 Total alkalinity (eq/kg)  =   1.893e-16
                         Temperature (°C)  =  25.00
                  Electrical balance (eq)  =   1.149e-10
 Percent error, 100*(Cat-|An|)/(Cat+|An|)  =   0.00
                               Iterations  =  32 (78 overall)
                                  Total H  = 5.550587e+02
                                  Total O  = 2.781259e+02

----------------------------Distribution of species----------------------------

                                               Log       Log       Log    mole V
   Species          Molality    Activity  Molality  Activity     Gamma   cm³/mol

   OH-             1.598e-07   1.250e-07    -6.796    -6.903    -0.107     -3.80
   H+              9.671e-08   8.091e-08    -7.015    -7.092    -0.077      0.00
   H2O             5.551e+01   9.992e-01     1.744    -0.000     0.000     18.07
Ca            2.983e-02
   Ca+2            1.899e-02   8.017e-03    -1.721    -2.096    -0.375    -17.51
   CaSO4           1.084e-02   1.103e-02    -1.965    -1.958     0.008      7.50
   CaOH+           2.062e-08   1.643e-08    -7.686    -7.784    -0.099     (0)  
   CaHSO4+         7.360e-09   5.865e-09    -8.133    -8.232    -0.099     (0)  
H(0)          0.000e+00
   H2              0.000e+00   0.000e+00   -40.587   -40.580     0.008     28.61
O(0)          1.180e-11
   O2              5.898e-12   6.002e-12   -11.229   -11.222     0.008     30.40
S(-2)         0.000e+00
   HS-             0.000e+00   0.000e+00  -125.163  -125.270    -0.107     20.83
   H2S             0.000e+00   0.000e+00  -125.428  -125.420     0.008     36.27
   S-2             0.000e+00   0.000e+00  -130.709  -131.096    -0.387     (0)  
   (H2S)2          0.000e+00   0.000e+00  -252.127  -252.119     0.008     30.09
S(6)          2.983e-02
   SO4-2           1.899e-02   7.735e-03    -1.721    -2.112    -0.390     23.27
   CaSO4           1.084e-02   1.103e-02    -1.965    -1.958     0.008      7.50
   HSO4-           7.635e-08   6.085e-08    -7.117    -7.216    -0.099     40.50
   CaHSO4+         7.360e-09   5.865e-09    -8.133    -8.232    -0.099     (0)  

------------------------------Saturation indices-------------------------------

  Phase               SI** log IAP   log K(298 K,   1 atm)

  Anhydrite         0.07     -4.21   -4.28  CaSO4
  Gypsum            0.37     -4.21   -4.58  CaSO4:2H2O
  H2(g)           -37.48    -40.58   -3.10  H2
  H2O(g)           -1.50     -0.00    1.50  H2O
  H2S(g)         -124.43   -132.36   -7.94  H2S
  O2(g)            -8.33    -11.22   -2.89  O2
  Sulfur          -92.87    -87.99    4.88  S

**For a gas, SI = log10(fugacity). Fugacity = pressure * phi / 1 atm.
  For ideal gases, phi = 1.

Reaction step 8.

Using solution 1.	Supersaturated Ca-SO4 water
Using kinetics 1.	

Kinetics 1.	

	Time step: 10 seconds  (Incremented time: 30 seconds)

	Rate name       Delta Moles Total Moles   Reactant        Coefficient

	Gypsum            3.998e-04   1.261e-03   Gypsum                    1

-----------------------------Solution composition------------------------------

	Elements           Molality       Moles

	Ca                2.975e-02   1.487e-01
	S                 2.975e-02   1.487e-01

----------------------------Description of solution----------------------------

                                       pH  =   7.092      Charge balance
                                       pe  =  11.623      Adjusted to redox equilibrium
      Specific Conductance (µS/cm,  25°C)  = 4414
                          Density (g/cm³)  =   1.00089
                               Volume (L)  =   5.01573
                        Viscosity (mPa s)  =   0.90366
                        Activity of water  =   0.999
                 Ionic strength (mol/kgw)  =   7.579e-02
                       Mass of water (kg)  =   5.000e+00
                 Total alkalinity (eq/kg)  =   1.951e-16
                         Temperature (°C)  =  25.00
                  Electrical balance (eq)  =   1.088e-10
 Percent error, 100*(Cat-|An|)/(Cat+|An|)  =   0.00
                               Iterations  =  32 (78 overall)
                                  Total H  = 5.550571e+02
                                  Total O  = 2.781235e+02

----------------------------Distribution of species----------------------------

                                               Log       Log       Log    mole V
   Species          Molality    Activity  Molality  Activity     Gamma   cm³/mol

   OH-             1.597e-07   1.250e-07    -6.797    -6.903    -0.107     -3.80
   H+              9.673e-08   8.094e-08    -7.014    -7.092    -0.077      0.00
   H2O             5.551e+01   9.992e-01     1.744    -0.000     0.000     18.07
Ca            2.975e-02
   Ca+2            1.895e-02   8.004e-03    -1.722    -2.097    -0.374    -17.51
   CaSO4           1.080e-02   1.099e-02    -1.967    -1.959     0.008      7.50
   CaOH+           2.057e-08   1.640e-08    -7.687    -7.785    -0.099     (0)  
   CaHSO4+         7.336e-09   5.847e-09    -8.135    -8.233    -0.099     (0)  
H(0)          0.000e+00
   H2              0.000e+00   0.000e+00   -40.587   -40.579     0.008     28.61
O(0)          1.178e-11
   O2              5.891e-12   5.994e-12   -11.230   -11.222     0.008     30.40
S(-2)         0.000e+00
   HS-             0.000e+00   0.000e+00  -125.163  -125.270    -0.107     20.83
   H2S             0.000e+00   0.000e+00  -125.427  -125.420     0.008     36.27
   S-2             0.000e+00   0.000e+00  -130.709  -131.096    -0.387     (0)  
   (H2S)2          0.000e+00   0.000e+00  -252.125  -252.118     0.008     30.09
S(6)          2.975e-02
   SO4-2           1.895e-02   7.722e-03    -1.722    -2.112    -0.390     23.26
   CaSO4           1.080e-02   1.099e-02    -1.967    -1.959     0.008      7.50
   HSO4-           7.624e-08   6.077e-08    -7.118    -7.216    -0.099     40.50
   CaHSO4+         7.336e-09   5.847e-09    -8.135    -8.233    -0.099     (0)  

------------------------------Saturation indices-------------------------------

  Phase               SI** log IAP   log K(298 K,   1 atm)

  Anhydrite         0.07     -4.21   -4.28  CaSO4
  Gypsum            0.37     -4.21   -4.58  CaSO4:2H2O
  H2(g)           -37.48    -40.58   -3.10  H2
  H2O(g)           -1.50     -0.00    1.50  H2O
  H2S(g)         -124.43   -132.36   -7.94  H2S
  O2(g)            -8.33    -11.22   -2.89  O2
  Sulfur          -92.87    -87.99    4.88  S

**For a gas, SI = log10(fugacity). Fugacity = pressure * phi / 1 atm.
  For ideal gases, phi = 1.

Reaction step 9.

Using solution 1.	Supersaturated Ca-SO4 water
Using kinetics 1.	

Kinetics 1.	

	Time step: 20 seconds  (Incremented time: 50 seconds)

	Rate name       Delta Moles Total Moles   Reactant        Coefficient

	Gypsum            7.468e-04   2.007e-03   Gypsum                    1

-----------------------------Solution composition------------------------------

	Elements           Molality       Moles

	Ca                2.960e-02   1.480e-01
	S                 2.960e-02   1.480e-01

----------------------------Description of solution----------------------------

                                       pH  =   7.092      Charge balance
                                       pe  =  11.623      Adjusted to redox equilibrium
      Specific Conductance (µS/cm,  25°C)  = 4395
                          Density (g/cm³)  =   1.00087
                               Volume (L)  =   5.01570
                        Viscosity (mPa s)  =   0.90361
                        Activity of water  =   0.999
                 Ionic strength (mol/kgw)  =   7.546e-02
                       Mass of water (kg)  =   5.000e+00
                 Total alkalinity (eq/kg)  =   1.941e-16
                         Temperature (°C)  =  25.00
                  Electrical balance (eq)  =   6.845e-11
 Percent error, 100*(Cat-|An|)/(Cat+|An|)  =   0.00
                               Iterations  =  44 (106 overall)
                                  Total H  = 5.550541e+02
                                  Total O  = 2.781190e+02

----------------------------Distribution of species----------------------------

                                               Log       Log       Log    mole V
   Species          Molality    Activity  Molality  Activity     Gamma   cm³/mol

   OH-             1.596e-07   1.249e-07    -6.797    -6.903    -0.106     -3.80
   H+              9.676e-08   8.098e-08    -7.014    -7.092    -0.077      0.00
   H2O             5.551e+01   9.992e-01     1.744    -0.000     0.000     18.07
Ca            2.960e-02
   Ca+2            1.886e-02   7.978e-03    -1.724    -2.098    -0.374    -17.51
   CaSO4           1.074e-02   1.092e-02    -1.969    -1.962     0.008      7.50
   CaOH+           2.049e-08   1.634e-08    -7.688    -7.787    -0.098     (0)  
   CaHSO4+         7.292e-09   5.814e-09    -8.137    -8.236    -0.098     (0)  
H(0)          0.000e+00
   H2              0.000e+00   0.000e+00   -40.587   -40.579     0.008     28.61
O(0)          1.178e-11
   O2              5.888e-12   5.991e-12   -11.230   -11.223     0.008     30.40
S(-2)         0.000e+00
   HS-             0.000e+00   0.000e+00  -125.164  -125.270    -0.106     20.83
   H2S             0.000e+00   0.000e+00  -125.428  -125.420     0.008     36.27
   S-2             0.000e+00   0.000e+00  -130.710  -131.097    -0.386     (0)  
   (H2S)2          0.000e+00   0.000e+00  -252.126  -252.118     0.008     30.09
S(6)          2.960e-02
   SO4-2           1.886e-02   7.699e-03    -1.724    -2.114    -0.389     23.24
   CaSO4           1.074e-02   1.092e-02    -1.969    -1.962     0.008      7.50
   HSO4-           7.602e-08   6.062e-08    -7.119    -7.217    -0.098     40.50
   CaHSO4+         7.292e-09   5.814e-09    -8.137    -8.236    -0.098     (0)  

------------------------------Saturation indices-------------------------------

  Phase               SI** log IAP   log K(298 K,   1 atm)

  Anhydrite         0.07     -4.21   -4.28  CaSO4
  Gypsum            0.37     -4.21   -4.58  CaSO4:2H2O
  H2(g)           -37.48    -40.58   -3.10  H2
  H2O(g)           -1.50     -0.00    1.50  H2O
  H2S(g)         -124.43   -132.36   -7.94  H2S
  O2(g)            -8.33    -11.22   -2.89  O2
  Sulfur          -92.87    -87.99    4.88  S

**For a gas, SI = log10(fugacity). Fugacity = pressure * phi / 1 atm.
  For ideal gases, phi = 1.

Reaction step 10.

Using solution 1.	Supersaturated Ca-SO4 water
Using kinetics 1.	

Kinetics 1.	

	Time step: 30 seconds  (Incremented time: 80 seconds)

	Rate name       Delta Moles Total Moles   Reactant        Coefficient

	Gypsum            1.008e-03   3.015e-03   Gypsum                    1

-----------------------------Solution composition------------------------------

	Elements           Molality       Moles

	Ca                2.940e-02   1.470e-01
	S                 2.940e-02   1.470e-01

----------------------------Description of solution----------------------------

                                       pH  =   7.091      Charge balance
                                       pe  =  11.623      Adjusted to redox equilibrium
      Specific Conductance (µS/cm,  25°C)  = 4370
                          Density (g/cm³)  =   1.00085
                               Volume (L)  =   5.01565
                        Viscosity (mPa s)  =   0.90354
                        Activity of water  =   0.999
                 Ionic strength (mol/kgw)  =   7.501e-02
                       Mass of water (kg)  =   5.000e+00
                 Total alkalinity (eq/kg)  =   1.839e-16
                         Temperature (°C)  =  25.00
                  Electrical balance (eq)  =  -3.132e-11
 Percent error, 100*(Cat-|An|)/(Cat+|An|)  =  -0.00
                               Iterations  =  50 (116 overall)
                                  Total H  = 5.550501e+02
                                  Total O  = 2.781130e+02

----------------------------Distribution of species----------------------------

                                               Log       Log       Log    mole V
   Species          Molality    Activity  Molality  Activity     Gamma   cm³/mol

   OH-             1.594e-07   1.248e-07    -6.798    -6.904    -0.106     -3.80
   H+              9.680e-08   8.104e-08    -7.014    -7.091    -0.077      0.00
   H2O             5.551e+01   9.992e-01     1.744    -0.000     0.000     18.07
Ca            2.940e-02
   Ca+2            1.875e-02   7.944e-03    -1.727    -2.100    -0.373    -17.52
   CaSO4           1.065e-02   1.083e-02    -1.973    -1.965     0.008      7.50
   CaOH+           2.038e-08   1.626e-08    -7.691    -7.789    -0.098     (0)  
   CaHSO4+         7.233e-09   5.770e-09    -8.141    -8.239    -0.098     (0)  
H(0)          0.000e+00
   H2              0.000e+00   0.000e+00   -40.586   -40.579     0.008     28.61
O(0)          1.176e-11
   O2              5.882e-12   5.985e-12   -11.230   -11.223     0.008     30.40
S(-2)         0.000e+00
   HS-             0.000e+00   0.000e+00  -125.165  -125.271    -0.106     20.83
   H2S             0.000e+00   0.000e+00  -125.428  -125.420     0.008     36.27
   S-2             0.000e+00   0.000e+00  -130.712  -131.097    -0.385     (0)  
   (H2S)2          0.000e+00   0.000e+00  -252.126  -252.119     0.008     30.09
S(6)          2.940e-02
   SO4-2           1.875e-02   7.668e-03    -1.727    -2.115    -0.388     23.21
   CaSO4           1.065e-02   1.083e-02    -1.973    -1.965     0.008      7.50
   HSO4-           7.573e-08   6.041e-08    -7.121    -7.219    -0.098     40.50
   CaHSO4+         7.233e-09   5.770e-09    -8.141    -8.239    -0.098     (0)  

------------------------------Saturation indices-------------------------------

  Phase               SI** log IAP   log K(298 K,   1 atm)

  Anhydrite         0.06     -4.22   -4.28  CaSO4
  Gypsum            0.37     -4.22   -4.58  CaSO4:2H2O
  H2(g)           -37.48    -40.58   -3.10  H2
  H2O(g)           -1.50     -0.00    1.50  H2O
  H2S(g)         -124.43   -132.36   -7.94  H2S
  O2(g)            -8.33    -11.22   -2.89  O2
  Sulfur          -92.87    -87.99    4.88  S

**For a gas, SI = log10(fugacity). Fugacity = pressure * phi / 1 atm.
  For ideal gases, phi = 1.

Reaction step 11.

Using solution 1.	Supersaturated Ca-SO4 water
Using kinetics 1.	

Kinetics 1.	

	Time step: 20 seconds  (Incremented time: 100 seconds)

	Rate name       Delta Moles Total Moles   Reactant        Coefficient

	Gypsum            6.093e-04   3.625e-03   Gypsum                    1

-----------------------------Solution composition------------------------------

	Elements           Molality       Moles

	Ca                2.928e-02   1.464e-01
	S                 2.928e-02   1.464e-01

----------------------------Description of solution----------------------------

                                       pH  =   7.091      Charge balance
                                       pe  =  11.623      Adjusted to redox equilibrium
      Specific Conductance (µS/cm,  25°C)  = 4355
                          Density (g/cm³)  =   1.00083
                               Volume (L)  =   5.01563
                        Viscosity (mPa s)  =   0.90351
                        Activity of water  =   0.999
                 Ionic strength (mol/kgw)  =   7.473e-02
                       Mass of water (kg)  =   5.000e+00
                 Total alkalinity (eq/kg)  =   1.702e-16
                         Temperature (°C)  =  25.00
                  Electrical balance (eq)  =  -5.354e-11
 Percent error, 100*(Cat-|An|)/(Cat+|An|)  =  -0.00
                               Iterations  =  40 (94 overall)
                                  Total H  = 5.550477e+02
                                  Total O  = 2.781093e+02

----------------------------Distribution of species----------------------------

                                               Log       Log       Log    mole V
   Species          Molality    Activity  Molality  Activity     Gamma   cm³/mol

   OH-             1.593e-07   1.247e-07    -6.798    -6.904    -0.106     -3.80
   H+              9.682e-08   8.107e-08    -7.014    -7.091    -0.077      0.00
   H2O             5.551e+01   9.992e-01     1.744    -0.000     0.000     18.07
Ca            2.928e-02
   Ca+2            1.868e-02   7.923e-03    -1.729    -2.101    -0.373    -17.52
   CaSO4           1.059e-02   1.078e-02    -1.975    -1.968     0.007      7.50
   CaOH+           2.031e-08   1.621e-08    -7.692    -7.790    -0.098     (0)  
   CaHSO4+         7.197e-09   5.743e-09    -8.143    -8.241    -0.098     (0)  
H(0)          0.000e+00
   H2              0.000e+00   0.000e+00   -40.586   -40.579     0.007     28.61
O(0)          1.176e-11
   O2              5.878e-12   5.980e-12   -11.231   -11.223     0.007     30.40
S(-2)         0.000e+00
   HS-             0.000e+00   0.000e+00  -125.165  -125.271    -0.106     20.83
   H2S             0.000e+00   0.000e+00  -125.428  -125.420     0.007     36.27
   S-2             0.000e+00   0.000e+00  -130.713  -131.098    -0.385     (0)  
   (H2S)2          0.000e+00   0.000e+00  -252.127  -252.119     0.007     30.09
S(6)          2.928e-02
   SO4-2           1.868e-02   7.648e-03    -1.729    -2.116    -0.388     23.20
   CaSO4           1.059e-02   1.078e-02    -1.975    -1.968     0.007      7.50
   HSO4-           7.556e-08   6.029e-08    -7.122    -7.220    -0.098     40.50
   CaHSO4+         7.197e-09   5.743e-09    -8.143    -8.241    -0.098     (0)  

------------------------------Saturation indices-------------------------------

  Phase               SI** log IAP   log K(298 K,   1 atm)

  Anhydrite         0.06     -4.22   -4.28  CaSO4
  Gypsum            0.36     -4.22   -4.58  CaSO4:2H2O
  H2(g)           -37.48    -40.58   -3.10  H2
  H2O(g)           -1.50     -0.00    1.50  H2O
  H2S(g)         -124.43   -132.36   -7.94  H2S
  O2(g)            -8.33    -11.22   -2.89  O2
  Sulfur          -92.87    -87.99    4.88  S

**For a gas, SI = log10(fugacity). Fugacity = pressure * phi / 1 atm.
  For ideal gases, phi = 1.

Reaction step 12.

Using solution 1.	Supersaturated Ca-SO4 water
Using kinetics 1.	

Kinetics 1.	

	Time step: 100 seconds  (Incremented time: 200 seconds)

	Rate name       Delta Moles Total Moles   Reactant        Coefficient

	Gypsum            2.502e-03   6.127e-03   Gypsum                    1

-----------------------------Solution composition------------------------------

	Elements           Molality       Moles

	Ca                2.878e-02   1.439e-01
	S                 2.878e-02   1.439e-01

----------------------------Description of solution----------------------------

                                       pH  =   7.090      Charge balance
                                       pe  =  11.624      Adjusted to redox equilibrium
      Specific Conductance (µS/cm,  25°C)  = 4292
                          Density (g/cm³)  =   1.00077
                               Volume (L)  =   5.01551
                        Viscosity (mPa s)  =   0.90335
                        Activity of water  =   0.999
                 Ionic strength (mol/kgw)  =   7.362e-02
                       Mass of water (kg)  =   5.000e+00
                 Total alkalinity (eq/kg)  =   1.709e-16
                         Temperature (°C)  =  25.00
                  Electrical balance (eq)  =  -5.352e-11
 Percent error, 100*(Cat-|An|)/(Cat+|An|)  =  -0.00
                               Iterations  =  73 (179 overall)
                                  Total H  = 5.550377e+02
                                  Total O  = 2.780943e+02

----------------------------Distribution of species----------------------------

                                               Log       Log       Log    mole V
   Species          Molality    Activity  Molality  Activity     Gamma   cm³/mol

   OH-             1.588e-07   1.245e-07    -6.799    -6.905    -0.105     -3.80
   H+              9.692e-08   8.121e-08    -7.014    -7.090    -0.077      0.00
   H2O             5.551e+01   9.992e-01     1.744    -0.000     0.000     18.07
Ca            2.878e-02
   Ca+2            1.840e-02   7.837e-03    -1.735    -2.106    -0.371    -17.52
   CaSO4           1.037e-02   1.055e-02    -1.984    -1.977     0.007      7.50
   CaOH+           2.003e-08   1.600e-08    -7.698    -7.796    -0.098     (0)  
   CaHSO4+         7.050e-09   5.632e-09    -8.152    -8.249    -0.098     (0)  
H(0)          0.000e+00
   H2              0.000e+00   0.000e+00   -40.586   -40.578     0.007     28.61
O(0)          1.175e-11
   O2              5.873e-12   5.974e-12   -11.231   -11.224     0.007     30.40
S(-2)         0.000e+00
   HS-             0.000e+00   0.000e+00  -125.168  -125.274    -0.105     20.83
   H2S             0.000e+00   0.000e+00  -125.430  -125.422     0.007     36.27
   S-2             0.000e+00   0.000e+00  -130.719  -131.101    -0.383     (0)  
   (H2S)2          0.000e+00   0.000e+00  -252.131  -252.123     0.007     30.09
S(6)          2.878e-02
   SO4-2           1.840e-02   7.570e-03    -1.735    -2.121    -0.386     23.14
   CaSO4           1.037e-02   1.055e-02    -1.984    -1.977     0.007      7.50
   HSO4-           7.483e-08   5.977e-08    -7.126    -7.224    -0.098     40.50
   CaHSO4+         7.050e-09   5.632e-09    -8.152    -8.249    -0.098     (0)  

------------------------------Saturation indices-------------------------------

  Phase               SI** log IAP   log K(298 K,   1 atm)

  Anhydrite         0.05     -4.23   -4.28  CaSO4
  Gypsum            0.35     -4.23   -4.58  CaSO4:2H2O
  H2(g)           -37.48    -40.58   -3.10  H2
  H2O(g)           -1.50     -0.00    1.50  H2O
  H2S(g)         -124.43   -132.36   -7.94  H2S
  O2(g)            -8.33    -11.22   -2.89  O2
  Sulfur          -92.88    -87.99    4.88  S

**For a gas, SI = log10(fugacity). Fugacity = pressure * phi / 1 atm.
  For ideal gases, phi = 1.

Reaction step 13.

Using solution 1.	Supersaturated Ca-SO4 water
Using kinetics 1.	

Kinetics 1.	

	Time step: 100 seconds  (Incremented time: 300 seconds)

	Rate name       Delta Moles Total Moles   Reactant        Coefficient

	Gypsum            1.894e-03   8.021e-03   Gypsum                    1

-----------------------------Solution composition------------------------------

	Elements           Molality       Moles

	Ca                2.840e-02   1.420e-01
	S                 2.840e-02   1.420e-01

----------------------------Description of solution----------------------------

                                       pH  =   7.090      Charge balance
                                       pe  =  11.624      Adjusted to redox equilibrium
      Specific Conductance (µS/cm,  25°C)  = 4245
                          Density (g/cm³)  =   1.00072
                               Volume (L)  =   5.01543
                        Viscosity (mPa s)  =   0.90323
                        Activity of water  =   0.999
                 Ionic strength (mol/kgw)  =   7.277e-02
                       Mass of water (kg)  =   5.000e+00
                 Total alkalinity (eq/kg)  =   1.667e-16
                         Temperature (°C)  =  25.00
                  Electrical balance (eq)  =  -5.351e-11
 Percent error, 100*(Cat-|An|)/(Cat+|An|)  =  -0.00
                               Iterations  =  65 (163 overall)
                                  Total H  = 5.550301e+02
                                  Total O  = 2.780830e+02

----------------------------Distribution of species----------------------------

                                               Log       Log       Log    mole V
   Species          Molality    Activity  Molality  Activity     Gamma   cm³/mol

   OH-             1.584e-07   1.244e-07    -6.800    -6.905    -0.105     -3.80
   H+              9.700e-08   8.132e-08    -7.013    -7.090    -0.077      0.00
   H2O             5.551e+01   9.992e-01     1.744    -0.000     0.000     18.07
Ca            2.840e-02
   Ca+2            1.819e-02   7.772e-03    -1.740    -2.109    -0.369    -17.52
   CaSO4           1.021e-02   1.038e-02    -1.991    -1.984     0.007      7.50
   CaOH+           1.982e-08   1.585e-08    -7.703    -7.800    -0.097     (0)  
   CaHSO4+         6.940e-09   5.548e-09    -8.159    -8.256    -0.097     (0)  
H(0)          0.000e+00
   H2              0.000e+00   0.000e+00   -40.585   -40.578     0.007     28.61
O(0)          1.172e-11
   O2              5.859e-12   5.958e-12   -11.232   -11.225     0.007     30.40
S(-2)         0.000e+00
   HS-             0.000e+00   0.000e+00  -125.169  -125.274    -0.105     20.83
   H2S             0.000e+00   0.000e+00  -125.430  -125.422     0.007     36.27
   S-2             0.000e+00   0.000e+00  -130.721  -131.103    -0.381     (0)  
   (H2S)2          0.000e+00   0.000e+00  -252.130  -252.123     0.007     30.09
S(6)          2.840e-02
   SO4-2           1.819e-02   7.509e-03    -1.740    -2.124    -0.384     23.09
   CaSO4           1.021e-02   1.038e-02    -1.991    -1.984     0.007      7.50
   HSO4-           7.427e-08   5.937e-08    -7.129    -7.226    -0.097     40.50
   CaHSO4+         6.940e-09   5.548e-09    -8.159    -8.256    -0.097     (0)  

------------------------------Saturation indices-------------------------------

  Phase               SI** log IAP   log K(298 K,   1 atm)

  Anhydrite         0.04     -4.23   -4.28  CaSO4
  Gypsum            0.35     -4.23   -4.58  CaSO4:2H2O
  H2(g)           -37.48    -40.58   -3.10  H2
  H2O(g)           -1.50     -0.00    1.50  H2O
  H2S(g)         -124.43   -132.36   -7.94  H2S
  O2(g)            -8.33    -11.22   -2.89  O2
  Sulfur          -92.88    -87.99    4.88  S

**For a gas, SI = log10(fugacity). Fugacity = pressure * phi / 1 atm.
  For ideal gases, phi = 1.

Reaction step 14.

Using solution 1.	Supersaturated Ca-SO4 water
Using kinetics 1.	

Kinetics 1.	

	Time step: 200 seconds  (Incremented time: 500 seconds)

	Rate name       Delta Moles Total Moles   Reactant        Coefficient

	Gypsum            2.773e-03   1.079e-02   Gypsum                    1

-----------------------------Solution composition------------------------------

	Elements           Molality       Moles

	Ca                2.784e-02   1.392e-01
	S                 2.784e-02   1.392e-01

----------------------------Description of solution----------------------------

                                       pH  =   7.089      Charge balance
                                       pe  =  11.625      Adjusted to redox equilibrium
      Specific Conductance (µS/cm,  25°C)  = 4175
                          Density (g/cm³)  =   1.00065
                               Volume (L)  =   5.01530
                        Viscosity (mPa s)  =   0.90305
                        Activity of water  =   0.999
                 Ionic strength (mol/kgw)  =   7.152e-02
                       Mass of water (kg)  =   5.000e+00
                 Total alkalinity (eq/kg)  =   1.774e-16
                         Temperature (°C)  =  25.00
                  Electrical balance (eq)  =  -5.346e-11
 Percent error, 100*(Cat-|An|)/(Cat+|An|)  =  -0.00
                               Iterations  =  81 (201 overall)
                                  Total H  = 5.550190e+02
                                  Total O  = 2.780663e+02

----------------------------Distribution of species----------------------------

                                               Log       Log       Log    mole V
   Species          Molality    Activity  Molality  Activity     Gamma   cm³/mol

   OH-             1.578e-07   1.241e-07    -6.802    -6.906    -0.104     -3.81
   H+              9.711e-08   8.149e-08    -7.013    -7.089    -0.076      0.00
   H2O             5.551e+01   9.992e-01     1.744    -0.000     0.000     18.07
Ca            2.784e-02
   Ca+2            1.788e-02   7.675e-03    -1.748    -2.115    -0.367    -17.53
   CaSO4           9.963e-03   1.013e-02    -2.002    -1.994     0.007      7.50
   CaOH+           1.951e-08   1.562e-08    -7.710    -7.806    -0.097     (0)  
   CaHSO4+         6.777e-09   5.425e-09    -8.169    -8.266    -0.097     (0)  
H(0)          0.000e+00
   H2              0.000e+00   0.000e+00   -40.585   -40.578     0.007     28.61
O(0)          1.173e-11
   O2              5.864e-12   5.961e-12   -11.232   -11.225     0.007     30.40
S(-2)         0.000e+00
   HS-             0.000e+00   0.000e+00  -125.175  -125.279    -0.104     20.83
   H2S             0.000e+00   0.000e+00  -125.434  -125.426     0.007     36.27
   S-2             0.000e+00   0.000e+00  -130.729  -131.108    -0.379     (0)  
   (H2S)2          0.000e+00   0.000e+00  -252.138  -252.131     0.007     30.09
S(6)          2.784e-02
   SO4-2           1.788e-02   7.421e-03    -1.748    -2.130    -0.382     23.02
   CaSO4           9.963e-03   1.013e-02    -2.002    -1.994     0.007      7.50
   HSO4-           7.345e-08   5.879e-08    -7.134    -7.231    -0.097     40.49
   CaHSO4+         6.777e-09   5.425e-09    -8.169    -8.266    -0.097     (0)  

------------------------------Saturation indices-------------------------------

  Phase               SI** log IAP   log K(298 K,   1 atm)

  Anhydrite         0.03     -4.24   -4.28  CaSO4
  Gypsum            0.34     -4.25   -4.58  CaSO4:2H2O
  H2(g)           -37.48    -40.58   -3.10  H2
  H2O(g)           -1.50     -0.00    1.50  H2O
  H2S(g)         -124.43   -132.37   -7.94  H2S
  O2(g)            -8.33    -11.22   -2.89  O2
  Sulfur          -92.88    -88.00    4.88  S

**For a gas, SI = log10(fugacity). Fugacity = pressure * phi / 1 atm.
  For ideal gases, phi = 1.

Reaction step 15.

Using solution 1.	Supersaturated Ca-SO4 water
Using kinetics 1.	

Kinetics 1.	

	Time step: 300 seconds  (Incremented time: 800 seconds)

	Rate name       Delta Moles Total Moles   Reactant        Coefficient

	Gypsum            2.825e-03   1.362e-02   Gypsum                    1

-----------------------------Solution composition------------------------------

	Elements           Molality       Moles

	Ca                2.728e-02   1.364e-01
	S                 2.728e-02   1.364e-01

----------------------------Description of solution----------------------------

                                       pH  =   7.088      Charge balance
                                       pe  =  11.626      Adjusted to redox equilibrium
      Specific Conductance (µS/cm,  25°C)  = 4103
                          Density (g/cm³)  =   1.00058
                               Volume (L)  =   5.01518
                        Viscosity (mPa s)  =   0.90287
                        Activity of water  =   0.999
                 Ionic strength (mol/kgw)  =   7.025e-02
                       Mass of water (kg)  =   5.000e+00
                 Total alkalinity (eq/kg)  =   1.852e-16
                         Temperature (°C)  =  25.00
                  Electrical balance (eq)  =  -5.340e-11
 Percent error, 100*(Cat-|An|)/(Cat+|An|)  =  -0.00
                               Iterations  =  75 (189 overall)
                                  Total H  = 5.550077e+02
                                  Total O  = 2.780494e+02

----------------------------Distribution of species----------------------------

                                               Log       Log       Log    mole V
   Species          Molality    Activity  Molality  Activity     Gamma   cm³/mol

   OH-             1.572e-07   1.239e-07    -6.803    -6.907    -0.104     -3.81
   H+              9.722e-08   8.165e-08    -7.012    -7.088    -0.076      0.00
   H2O             5.551e+01   9.992e-01     1.744    -0.000     0.000     18.07
Ca            2.728e-02
   Ca+2            1.756e-02   7.576e-03    -1.755    -2.121    -0.365    -17.53
   CaSO4           9.716e-03   9.875e-03    -2.013    -2.005     0.007      7.50
   CaOH+           1.920e-08   1.539e-08    -7.717    -7.813    -0.096     (0)  
   CaHSO4+         6.613e-09   5.300e-09    -8.180    -8.276    -0.096     (0)  
H(0)          0.000e+00
   H2              0.000e+00   0.000e+00   -40.585   -40.578     0.007     28.61
O(0)          1.173e-11
   O2              5.864e-12   5.960e-12   -11.232   -11.225     0.007     30.40
S(-2)         0.000e+00
   HS-             0.000e+00   0.000e+00  -125.180  -125.283    -0.104     20.82
   H2S             0.000e+00   0.000e+00  -125.437  -125.430     0.007     36.27
   S-2             0.000e+00   0.000e+00  -130.737  -131.113    -0.377     (0)  
   (H2S)2          0.000e+00   0.000e+00  -252.145  -252.138     0.007     30.09
S(6)          2.728e-02
   SO4-2           1.756e-02   7.329e-03    -1.755    -2.135    -0.380     22.95
   CaSO4           9.716e-03   9.875e-03    -2.013    -2.005     0.007      7.50
   HSO4-           7.260e-08   5.818e-08    -7.139    -7.235    -0.096     40.49
   CaHSO4+         6.613e-09   5.300e-09    -8.180    -8.276    -0.096     (0)  

------------------------------Saturation indices-------------------------------

  Phase               SI** log IAP   log K(298 K,   1 atm)

  Anhydrite         0.02     -4.26   -4.28  CaSO4
  Gypsum            0.33     -4.26   -4.58  CaSO4:2H2O
  H2(g)           -37.48    -40.58   -3.10  H2
  H2O(g)           -1.50     -0.00    1.50  H2O
  H2S(g)         -124.44   -132.37   -7.94  H2S
  O2(g)            -8.33    -11.22   -2.89  O2
  Sulfur          -92.88    -88.00    4.88  S

**For a gas, SI = log10(fugacity). Fugacity = pressure * phi / 1 atm.
  For ideal gases, phi = 1.

Reaction step 16.

Using solution 1.	Supersaturated Ca-SO4 water
Using kinetics 1.	

Kinetics 1.	

	Time step: 200 seconds  (Incremented time: 1000 seconds)

	Rate name       Delta Moles Total Moles   Reactant        Coefficient

	Gypsum            1.398e-03   1.502e-02   Gypsum                    1

-----------------------------Solution composition------------------------------

	Elements           Molality       Moles

	Ca                2.700e-02   1.350e-01
	S                 2.700e-02   1.350e-01

----------------------------Description of solution----------------------------

                                       pH  =   7.088      Charge balance
                                       pe  =  11.627      Adjusted to redox equilibrium
      Specific Conductance (µS/cm,  25°C)  = 4068
                          Density (g/cm³)  =   1.00054
                               Volume (L)  =   5.01511
                        Viscosity (mPa s)  =   0.90277
                        Activity of water  =   0.999
                 Ionic strength (mol/kgw)  =   6.962e-02
                       Mass of water (kg)  =   4.999e+00
                 Total alkalinity (eq/kg)  =   1.747e-16
                         Temperature (°C)  =  25.00
                  Electrical balance (eq)  =  -5.339e-11
 Percent error, 100*(Cat-|An|)/(Cat+|An|)  =  -0.00
                               Iterations  =  60 (144 overall)
                                  Total H  = 5.550021e+02
                                  Total O  = 2.780410e+02

----------------------------Distribution of species----------------------------

                                               Log       Log       Log    mole V
   Species          Molality    Activity  Molality  Activity     Gamma   cm³/mol

   OH-             1.569e-07   1.237e-07    -6.804    -6.908    -0.103     -3.81
   H+              9.728e-08   8.174e-08    -7.012    -7.088    -0.076      0.00
   H2O             5.551e+01   9.992e-01     1.744    -0.000     0.000     18.07
Ca            2.700e-02
   Ca+2            1.741e-02   7.527e-03    -1.759    -2.123    -0.364    -17.54
   CaSO4           9.594e-03   9.749e-03    -2.018    -2.011     0.007      7.50
   CaOH+           1.904e-08   1.527e-08    -7.720    -7.816    -0.096     (0)  
   CaHSO4+         6.531e-09   5.238e-09    -8.185    -8.281    -0.096     (0)  
H(0)          0.000e+00
   H2              0.000e+00   0.000e+00   -40.585   -40.578     0.007     28.61
O(0)          1.174e-11
   O2              5.872e-12   5.967e-12   -11.231   -11.224     0.007     30.40
S(-2)         0.000e+00
   HS-             0.000e+00   0.000e+00  -125.183  -125.287    -0.103     20.82
   H2S             0.000e+00   0.000e+00  -125.440  -125.433     0.007     36.27
   S-2             0.000e+00   0.000e+00  -130.742  -131.117    -0.376     (0)  
   (H2S)2          0.000e+00   0.000e+00  -252.150  -252.143     0.007     30.09
S(6)          2.700e-02
   SO4-2           1.741e-02   7.284e-03    -1.759    -2.138    -0.378     22.92
   CaSO4           9.594e-03   9.749e-03    -2.018    -2.011     0.007      7.50
   HSO4-           7.217e-08   5.788e-08    -7.142    -7.237    -0.096     40.49
   CaHSO4+         6.531e-09   5.238e-09    -8.185    -8.281    -0.096     (0)  

------------------------------Saturation indices-------------------------------

  Phase               SI** log IAP   log K(298 K,   1 atm)

  Anhydrite         0.02     -4.26   -4.28  CaSO4
  Gypsum            0.32     -4.26   -4.58  CaSO4:2H2O
  H2(g)           -37.48    -40.58   -3.10  H2
  H2O(g)           -1.50     -0.00    1.50  H2O
  H2S(g)         -124.44   -132.37   -7.94  H2S
  O2(g)            -8.33    -11.22   -2.89  O2
  Sulfur          -92.89    -88.00    4.88  S

**For a gas, SI = log10(fugacity). Fugacity = pressure * phi / 1 atm.
  For ideal gases, phi = 1.

Reaction step 17.

Using solution 1.	Supersaturated Ca-SO4 water
Using kinetics 1.	

Kinetics 1.	

	Time step: 1000 seconds  (Incremented time: 2000 seconds)

	Rate name       Delta Moles Total Moles   Reactant        Coefficient

	Gypsum            4.421e-03   1.944e-02   Gypsum                    1

-----------------------------Solution composition------------------------------

	Elements           Molality       Moles

	Ca                2.612e-02   1.306e-01
	S                 2.612e-02   1.306e-01

----------------------------Description of solution----------------------------

                                       pH  =   7.086      Charge balance
                                       pe  =  11.628      Adjusted to redox equilibrium
      Specific Conductance (µS/cm,  25°C)  = 3955
                          Density (g/cm³)  =   1.00043
                               Volume (L)  =   5.01492
                        Viscosity (mPa s)  =   0.90249
                        Activity of water  =   0.999
                 Ionic strength (mol/kgw)  =   6.762e-02
                       Mass of water (kg)  =   4.999e+00
                 Total alkalinity (eq/kg)  =   1.656e-16
                         Temperature (°C)  =  25.00
                  Electrical balance (eq)  =  -5.280e-11
 Percent error, 100*(Cat-|An|)/(Cat+|An|)  =  -0.00
                               Iterations  = 104 (264 overall)
                                  Total H  = 5.549844e+02
                                  Total O  = 2.780145e+02

----------------------------Distribution of species----------------------------

                                               Log       Log       Log    mole V
   Species          Molality    Activity  Molality  Activity     Gamma   cm³/mol

   OH-             1.560e-07   1.233e-07    -6.807    -6.909    -0.102     -3.82
   H+              9.747e-08   8.201e-08    -7.011    -7.086    -0.075      0.00
   H2O             5.551e+01   9.993e-01     1.744    -0.000     0.000     18.07
Ca            2.612e-02
   Ca+2            1.691e-02   7.370e-03    -1.772    -2.133    -0.361    -17.54
   CaSO4           9.210e-03   9.355e-03    -2.036    -2.029     0.007      7.50
   CaOH+           1.854e-08   1.490e-08    -7.732    -7.827    -0.095     (0)  
   CaHSO4+         6.275e-09   5.043e-09    -8.202    -8.297    -0.095     (0)  
H(0)          0.000e+00
   H2              0.000e+00   0.000e+00   -40.585   -40.578     0.007     28.61
O(0)          1.175e-11
   O2              5.875e-12   5.968e-12   -11.231   -11.224     0.007     30.40
S(-2)         0.000e+00
   HS-             0.000e+00   0.000e+00  -125.192  -125.294    -0.102     20.82
   H2S             0.000e+00   0.000e+00  -125.445  -125.439     0.007     36.27
   S-2             0.000e+00   0.000e+00  -130.754  -131.126    -0.372     (0)  
   (H2S)2          0.000e+00   0.000e+00  -252.162  -252.155     0.007     30.09
S(6)          2.612e-02
   SO4-2           1.691e-02   7.138e-03    -1.772    -2.146    -0.374     22.80
   CaSO4           9.210e-03   9.355e-03    -2.036    -2.029     0.007      7.50
   HSO4-           7.082e-08   5.692e-08    -7.150    -7.245    -0.095     40.49
   CaHSO4+         6.275e-09   5.043e-09    -8.202    -8.297    -0.095     (0)  

------------------------------Saturation indices-------------------------------

  Phase               SI** log IAP   log K(298 K,   1 atm)

  Anhydrite        -0.00     -4.28   -4.28  CaSO4
  Gypsum            0.30     -4.28   -4.58  CaSO4:2H2O
  H2(g)           -37.48    -40.58   -3.10  H2
  H2O(g)           -1.50     -0.00    1.50  H2O
  H2S(g)         -124.44   -132.38   -7.94  H2S
  O2(g)            -8.33    -11.22   -2.89  O2
  Sulfur          -92.89    -88.01    4.88  S

**For a gas, SI = log10(fugacity). Fugacity = pressure * phi / 1 atm.
  For ideal gases, phi = 1.

Reaction step 18.

Using solution 1.	Supersaturated Ca-SO4 water
Using kinetics 1.	

Kinetics 1.	

	Time step: 1000 seconds  (Incremented time: 3000 seconds)

	Rate name       Delta Moles Total Moles   Reactant        Coefficient

	Gypsum            2.564e-03   2.200e-02   Gypsum                    1

-----------------------------Solution composition------------------------------

	Elements           Molality       Moles

	Ca                2.560e-02   1.280e-01
	S                 2.560e-02   1.280e-01

----------------------------Description of solution----------------------------

                                       pH  =   7.085      Charge balance
                                       pe  =  11.629      Adjusted to redox equilibrium
      Specific Conductance (µS/cm,  25°C)  = 3890
                          Density (g/cm³)  =   1.00037
                               Volume (L)  =   5.01480
                        Viscosity (mPa s)  =   0.90232
                        Activity of water  =   0.999
                 Ionic strength (mol/kgw)  =   6.646e-02
                       Mass of water (kg)  =   4.999e+00
                 Total alkalinity (eq/kg)  =   1.612e-16
                         Temperature (°C)  =  25.00
                  Electrical balance (eq)  =  -5.276e-11
 Percent error, 100*(Cat-|An|)/(Cat+|An|)  =  -0.00
                               Iterations  =  80 (208 overall)
                                  Total H  = 5.549742e+02
                                  Total O  = 2.779991e+02

----------------------------Distribution of species----------------------------

                                               Log       Log       Log    mole V
   Species          Molality    Activity  Molality  Activity     Gamma   cm³/mol

   OH-             1.555e-07   1.231e-07    -6.808    -6.910    -0.101     -3.82
   H+              9.757e-08   8.217e-08    -7.011    -7.085    -0.075      0.00
   H2O             5.551e+01   9.993e-01     1.744    -0.000     0.000     18.07
Ca            2.560e-02
   Ca+2            1.662e-02   7.278e-03    -1.779    -2.138    -0.359    -17.55
   CaSO4           8.989e-03   9.127e-03    -2.046    -2.040     0.007      7.50
   CaOH+           1.825e-08   1.469e-08    -7.739    -7.833    -0.094     (0)  
   CaHSO4+         6.126e-09   4.930e-09    -8.213    -8.307    -0.094     (0)  
H(0)          0.000e+00
   H2              0.000e+00   0.000e+00   -40.585   -40.578     0.007     28.61
O(0)          1.174e-11
   O2              5.872e-12   5.962e-12   -11.231   -11.225     0.007     30.40
S(-2)         0.000e+00
   HS-             0.000e+00   0.000e+00  -125.196  -125.298    -0.101     20.82
   H2S             0.000e+00   0.000e+00  -125.448  -125.441     0.007     36.27
   S-2             0.000e+00   0.000e+00  -130.761  -131.130    -0.369     (0)  
   (H2S)2          0.000e+00   0.000e+00  -252.168  -252.161     0.007     30.09
S(6)          2.560e-02
   SO4-2           1.662e-02   7.053e-03    -1.779    -2.152    -0.372     22.74
   CaSO4           8.989e-03   9.127e-03    -2.046    -2.040     0.007      7.50
   HSO4-           7.002e-08   5.634e-08    -7.155    -7.249    -0.094     40.48
   CaHSO4+         6.126e-09   4.930e-09    -8.213    -8.307    -0.094     (0)  

------------------------------Saturation indices-------------------------------

  Phase               SI** log IAP   log K(298 K,   1 atm)

  Anhydrite        -0.01     -4.29   -4.28  CaSO4
  Gypsum            0.29     -4.29   -4.58  CaSO4:2H2O
  H2(g)           -37.48    -40.58   -3.10  H2
  H2O(g)           -1.50     -0.00    1.50  H2O
  H2S(g)         -124.45   -132.38   -7.94  H2S
  O2(g)            -8.33    -11.22   -2.89  O2
  Sulfur          -92.90    -88.01    4.88  S

**For a gas, SI = log10(fugacity). Fugacity = pressure * phi / 1 atm.
  For ideal gases, phi = 1.

Reaction step 19.

Using solution 1.	Supersaturated Ca-SO4 water
Using kinetics 1.	

Kinetics 1.	

	Time step: 2000 seconds  (Incremented time: 5000 seconds)

	Rate name       Delta Moles Total Moles   Reactant        Coefficient

	Gypsum            3.138e-03   2.514e-02   Gypsum                    1

-----------------------------Solution composition------------------------------

	Elements           Molality       Moles

	Ca                2.498e-02   1.249e-01
	S                 2.498e-02   1.249e-01

----------------------------Description of solution----------------------------

                                       pH  =   7.084      Charge balance
                                       pe  =  11.630      Adjusted to redox equilibrium
      Specific Conductance (µS/cm,  25°C)  = 3810
                          Density (g/cm³)  =   1.00029
                               Volume (L)  =   5.01466
                        Viscosity (mPa s)  =   0.90211
                        Activity of water  =   0.999
                 Ionic strength (mol/kgw)  =   6.503e-02
                       Mass of water (kg)  =   4.999e+00
                 Total alkalinity (eq/kg)  =   1.676e-16
                         Temperature (°C)  =  25.00
                  Electrical balance (eq)  =  -5.263e-11
 Percent error, 100*(Cat-|An|)/(Cat+|An|)  =  -0.00
                               Iterations  = 101 (249 overall)
                                  Total H  = 5.549616e+02
                                  Total O  = 2.779803e+02

----------------------------Distribution of species----------------------------

                                               Log       Log       Log    mole V
   Species          Molality    Activity  Molality  Activity     Gamma   cm³/mol

   OH-             1.548e-07   1.228e-07    -6.810    -6.911    -0.101     -3.83
   H+              9.771e-08   8.237e-08    -7.010    -7.084    -0.074      0.00
   H2O             5.551e+01   9.993e-01     1.744    -0.000     0.000     18.07
Ca            2.498e-02
   Ca+2            1.626e-02   7.164e-03    -1.789    -2.145    -0.356    -17.55
   CaSO4           8.718e-03   8.850e-03    -2.060    -2.053     0.007      7.50
   CaOH+           1.790e-08   1.442e-08    -7.747    -7.841    -0.094     (0)  
   CaHSO4+         5.945e-09   4.792e-09    -8.226    -8.320    -0.094     (0)  
H(0)          0.000e+00
   H2              0.000e+00   0.000e+00   -40.584   -40.578     0.007     28.61
O(0)          1.174e-11
   O2              5.868e-12   5.956e-12   -11.232   -11.225     0.007     30.40
S(-2)         0.000e+00
   HS-             0.000e+00   0.000e+00  -125.202  -125.302    -0.101     20.81
   H2S             0.000e+00   0.000e+00  -125.451  -125.445     0.007     36.27
   S-2             0.000e+00   0.000e+00  -130.769  -131.136    -0.367     (0)  
   (H2S)2          0.000e+00   0.000e+00  -252.174  -252.168     0.007     30.09
S(6)          2.498e-02
   SO4-2           1.626e-02   6.947e-03    -1.789    -2.158    -0.369     22.66
   CaSO4           8.718e-03   8.850e-03    -2.060    -2.053     0.007      7.50
   HSO4-           6.903e-08   5.564e-08    -7.161    -7.255    -0.094     40.48
   CaHSO4+         5.945e-09   4.792e-09    -8.226    -8.320    -0.094     (0)  

------------------------------Saturation indices-------------------------------

  Phase               SI** log IAP   log K(298 K,   1 atm)

  Anhydrite        -0.03     -4.30   -4.28  CaSO4
  Gypsum            0.28     -4.30   -4.58  CaSO4:2H2O
  H2(g)           -37.48    -40.58   -3.10  H2
  H2O(g)           -1.50     -0.00    1.50  H2O
  H2S(g)         -124.45   -132.39   -7.94  H2S
  O2(g)            -8.33    -11.23   -2.89  O2
  Sulfur          -92.90    -88.02    4.88  S

**For a gas, SI = log10(fugacity). Fugacity = pressure * phi / 1 atm.
  For ideal gases, phi = 1.

Reaction step 20.

Using solution 1.	Supersaturated Ca-SO4 water
Using kinetics 1.	

Kinetics 1.	

	Time step: 3000 seconds  (Incremented time: 8000 seconds)

	Rate name       Delta Moles Total Moles   Reactant        Coefficient

	Gypsum            2.764e-03   2.790e-02   Gypsum                    1

-----------------------------Solution composition------------------------------

	Elements           Molality       Moles

	Ca                2.442e-02   1.221e-01
	S                 2.442e-02   1.221e-01

----------------------------Description of solution----------------------------

                                       pH  =   7.083      Charge balance
                                       pe  =  11.631      Adjusted to redox equilibrium
      Specific Conductance (µS/cm,  25°C)  = 3738
                          Density (g/cm³)  =   1.00022
                               Volume (L)  =   5.01454
                        Viscosity (mPa s)  =   0.90192
                        Activity of water  =   0.999
                 Ionic strength (mol/kgw)  =   6.377e-02
                       Mass of water (kg)  =   4.999e+00
                 Total alkalinity (eq/kg)  =   1.718e-16
[...]
  Gypsum            0.26     -4.32   -4.58  CaSO4:2H2O
  H2(g)           -37.48    -40.58   -3.10  H2
  H2O(g)           -1.50     -0.00    1.50  H2O
  H2S(g)         -124.46   -132.39   -7.94  H2S
  O2(g)            -8.33    -11.23   -2.89  O2
  Sulfur          -92.90    -88.02    4.88  S

**For a gas, SI = log10(fugacity). Fugacity = pressure * phi / 1 atm.
  For ideal gases, phi = 1.

Reaction step 22.

Using solution 1.	Supersaturated Ca-SO4 water
Using kinetics 1.	

Kinetics 1.	

	Time step: 10000 seconds  (Incremented time: 20000 seconds)

	Rate name       Delta Moles Total Moles   Reactant        Coefficient

	Gypsum            3.733e-03   3.290e-02   Gypsum                    1

-----------------------------Solution composition------------------------------

	Elements           Molality       Moles

	Ca                2.343e-02   1.171e-01
	S                 2.343e-02   1.171e-01

----------------------------Description of solution----------------------------

                                       pH  =   7.082      Charge balance
                                       pe  =  11.632      Adjusted to redox equilibrium
      Specific Conductance (µS/cm,  25°C)  = 3609
                          Density (g/cm³)  =   1.00009
                               Volume (L)  =   5.01432
                        Viscosity (mPa s)  =   0.90159
                        Activity of water  =   0.999
                 Ionic strength (mol/kgw)  =   6.148e-02
                       Mass of water (kg)  =   4.999e+00
                 Total alkalinity (eq/kg)  =   1.960e-16
                         Temperature (°C)  =  25.00
                  Electrical balance (eq)  =  -5.220e-11
 Percent error, 100*(Cat-|An|)/(Cat+|An|)  =  -0.00
                               Iterations  = 127 (317 overall)
                                  Total H  = 5.549306e+02
                                  Total O  = 2.779337e+02

----------------------------Distribution of species----------------------------

                                               Log       Log       Log    mole V
   Species          Molality    Activity  Molality  Activity     Gamma   cm³/mol

   OH-             1.531e-07   1.220e-07    -6.815    -6.914    -0.098     -3.84
   H+              9.805e-08   8.289e-08    -7.009    -7.082    -0.073      0.00
   H2O             5.551e+01   9.993e-01     1.744    -0.000     0.000     18.07
Ca            2.343e-02
   Ca+2            1.537e-02   6.877e-03    -1.813    -2.163    -0.349    -17.57
   CaSO4           8.054e-03   8.169e-03    -2.094    -2.088     0.006      7.50
   CaOH+           1.700e-08   1.376e-08    -7.769    -7.861    -0.092     (0)  
   CaHSO4+         5.500e-09   4.451e-09    -8.260    -8.352    -0.092     (0)  
H(0)          0.000e+00
   H2              0.000e+00   0.000e+00   -40.584   -40.578     0.006     28.61
O(0)          1.174e-11
   O2              5.871e-12   5.955e-12   -11.231   -11.225     0.006     30.40
S(-2)         0.000e+00
   HS-             0.000e+00   0.000e+00  -125.218  -125.317    -0.098     20.81
   H2S             0.000e+00   0.000e+00  -125.463  -125.456     0.006     36.27
   S-2             0.000e+00   0.000e+00  -130.794  -131.153    -0.359     (0)  
   (H2S)2          0.000e+00   0.000e+00  -252.197  -252.191     0.006     30.09
S(6)          2.343e-02
   SO4-2           1.537e-02   6.680e-03    -1.813    -2.175    -0.362     22.45
   CaSO4           8.054e-03   8.169e-03    -2.094    -2.088     0.006      7.50
   HSO4-           6.652e-08   5.383e-08    -7.177    -7.269    -0.092     40.48
   CaHSO4+         5.500e-09   4.451e-09    -8.260    -8.352    -0.092     (0)  

------------------------------Saturation indices-------------------------------

  Phase               SI** log IAP   log K(298 K,   1 atm)

  Anhydrite        -0.06     -4.34   -4.28  CaSO4
  Gypsum            0.24     -4.34   -4.58  CaSO4:2H2O
  H2(g)           -37.48    -40.58   -3.10  H2
  H2O(g)           -1.50     -0.00    1.50  H2O
  H2S(g)         -124.46   -132.40   -7.94  H2S
  O2(g)            -8.33    -11.23   -2.89  O2
  Sulfur          -92.91    -88.03    4.88  S

**For a gas, SI = log10(fugacity). Fugacity = pressure * phi / 1 atm.
  For ideal gases, phi = 1.

Reaction step 23.

Using solution 1.	Supersaturated Ca-SO4 water
Using kinetics 1.	

Kinetics 1.	

	Time step: 10000 seconds  (Incremented time: 30000 seconds)

	Rate name       Delta Moles Total Moles   Reactant        Coefficient

	Gypsum            2.044e-03   3.495e-02   Gypsum                    1

-----------------------------Solution composition------------------------------

	Elements           Molality       Moles

	Ca                2.302e-02   1.151e-01
	S                 2.302e-02   1.151e-01

----------------------------Description of solution----------------------------

                                       pH  =   7.081      Charge balance
                                       pe  =  11.633      Adjusted to redox equilibrium
      Specific Conductance (µS/cm,  25°C)  = 3556
                          Density (g/cm³)  =   1.00004
                               Volume (L)  =   5.01423
                        Viscosity (mPa s)  =   0.90145
                        Activity of water  =   0.999
                 Ionic strength (mol/kgw)  =   6.055e-02
                       Mass of water (kg)  =   4.999e+00
                 Total alkalinity (eq/kg)  =   1.927e-16
                         Temperature (°C)  =  25.00
                  Electrical balance (eq)  =  -5.218e-11
 Percent error, 100*(Cat-|An|)/(Cat+|An|)  =  -0.00
                               Iterations  =  84 (216 overall)
                                  Total H  = 5.549224e+02
                                  Total O  = 2.779214e+02

----------------------------Distribution of species----------------------------

                                               Log       Log       Log    mole V
   Species          Molality    Activity  Molality  Activity     Gamma   cm³/mol

   OH-             1.526e-07   1.218e-07    -6.816    -6.914    -0.098     -3.84
   H+              9.814e-08   8.303e-08    -7.008    -7.081    -0.073      0.00
   H2O             5.551e+01   9.994e-01     1.744    -0.000     0.000     18.07
Ca            2.302e-02
   Ca+2            1.514e-02   6.800e-03    -1.820    -2.167    -0.348    -17.57
   CaSO4           7.880e-03   7.991e-03    -2.103    -2.097     0.006      7.50
   CaOH+           1.677e-08   1.358e-08    -7.776    -7.867    -0.091     (0)  
   CaHSO4+         5.383e-09   4.361e-09    -8.269    -8.360    -0.091     (0)  
H(0)          0.000e+00
   H2              0.000e+00   0.000e+00   -40.584   -40.578     0.006     28.61
O(0)          1.175e-11
   O2              5.877e-12   5.959e-12   -11.231   -11.225     0.006     30.40
S(-2)         0.000e+00
   HS-             0.000e+00   0.000e+00  -125.223  -125.321    -0.098     20.81
   H2S             0.000e+00   0.000e+00  -125.466  -125.460     0.006     36.27
   S-2             0.000e+00   0.000e+00  -130.801  -131.158    -0.358     (0)  
   (H2S)2          0.000e+00   0.000e+00  -252.205  -252.199     0.006     30.09
S(6)          2.302e-02
   SO4-2           1.514e-02   6.608e-03    -1.820    -2.180    -0.360     22.39
   CaSO4           7.880e-03   7.991e-03    -2.103    -2.097     0.006      7.50
   HSO4-           6.585e-08   5.334e-08    -7.181    -7.273    -0.091     40.47
   CaHSO4+         5.383e-09   4.361e-09    -8.269    -8.360    -0.091     (0)  

------------------------------Saturation indices-------------------------------

  Phase               SI** log IAP   log K(298 K,   1 atm)

  Anhydrite        -0.07     -4.35   -4.28  CaSO4
  Gypsum            0.23     -4.35   -4.58  CaSO4:2H2O
  H2(g)           -37.48    -40.58   -3.10  H2
  H2O(g)           -1.50     -0.00    1.50  H2O
  H2S(g)         -124.47   -132.40   -7.94  H2S
  O2(g)            -8.33    -11.22   -2.89  O2
  Sulfur          -92.91    -88.03    4.88  S

**For a gas, SI = log10(fugacity). Fugacity = pressure * phi / 1 atm.
  For ideal gases, phi = 1.

Reaction step 24.

Using solution 1.	Supersaturated Ca-SO4 water
Using kinetics 1.	

Kinetics 1.	

	Time step: 20000 seconds  (Incremented time: 50000 seconds)

	Rate name       Delta Moles Total Moles   Reactant        Coefficient

	Gypsum            2.433e-03   3.738e-02   Gypsum                    1

-----------------------------Solution composition------------------------------

	Elements           Molality       Moles

	Ca                2.253e-02   1.126e-01
	S                 2.253e-02   1.126e-01

----------------------------Description of solution----------------------------

                                       pH  =   7.080      Charge balance
                                       pe  =  11.634      Adjusted to redox equilibrium
      Specific Conductance (µS/cm,  25°C)  = 3493
                          Density (g/cm³)  =   0.99997
                               Volume (L)  =   5.01412
                        Viscosity (mPa s)  =   0.90128
                        Activity of water  =   0.999
                 Ionic strength (mol/kgw)  =   5.942e-02
                       Mass of water (kg)  =   4.999e+00
                 Total alkalinity (eq/kg)  =   1.875e-16
                         Temperature (°C)  =  25.00
                  Electrical balance (eq)  =  -5.213e-11
 Percent error, 100*(Cat-|An|)/(Cat+|An|)  =  -0.00
                               Iterations  =  92 (236 overall)
                                  Total H  = 5.549127e+02
                                  Total O  = 2.779068e+02

----------------------------Distribution of species----------------------------

                                               Log       Log       Log    mole V
   Species          Molality    Activity  Molality  Activity     Gamma   cm³/mol

   OH-             1.520e-07   1.216e-07    -6.818    -6.915    -0.097     -3.84
   H+              9.826e-08   8.320e-08    -7.008    -7.080    -0.072      0.00
   H2O             5.551e+01   9.994e-01     1.744    -0.000     0.000     18.07
Ca            2.253e-02
   Ca+2            1.486e-02   6.708e-03    -1.828    -2.173    -0.345    -17.58
   CaSO4           7.674e-03   7.780e-03    -2.115    -2.109     0.006      7.50
   CaOH+           1.648e-08   1.337e-08    -7.783    -7.874    -0.091     (0)  
   CaHSO4+         5.245e-09   4.255e-09    -8.280    -8.371    -0.091     (0)  
H(0)          0.000e+00
   H2              0.000e+00   0.000e+00   -40.584   -40.578     0.006     28.61
O(0)          1.175e-11
   O2              5.874e-12   5.955e-12   -11.231   -11.225     0.006     30.40
S(-2)         0.000e+00
   HS-             0.000e+00   0.000e+00  -125.228  -125.325    -0.097     20.80
   H2S             0.000e+00   0.000e+00  -125.469  -125.464     0.006     36.27
   S-2             0.000e+00   0.000e+00  -130.808  -131.163    -0.355     (0)  
   (H2S)2          0.000e+00   0.000e+00  -252.211  -252.205     0.006     30.09
S(6)          2.253e-02
   SO4-2           1.486e-02   6.522e-03    -1.828    -2.186    -0.358     22.32
   CaSO4           7.674e-03   7.780e-03    -2.115    -2.109     0.006      7.50
   HSO4-           6.503e-08   5.276e-08    -7.187    -7.278    -0.091     40.47
   CaHSO4+         5.245e-09   4.255e-09    -8.280    -8.371    -0.091     (0)  

------------------------------Saturation indices-------------------------------

  Phase               SI** log IAP   log K(298 K,   1 atm)

  Anhydrite        -0.08     -4.36   -4.28  CaSO4
  Gypsum            0.22     -4.36   -4.58  CaSO4:2H2O
  H2(g)           -37.48    -40.58   -3.10  H2
  H2O(g)           -1.50     -0.00    1.50  H2O
  H2S(g)         -124.47   -132.41   -7.94  H2S
  O2(g)            -8.33    -11.23   -2.89  O2
  Sulfur          -92.92    -88.04    4.88  S

**For a gas, SI = log10(fugacity). Fugacity = pressure * phi / 1 atm.
  For ideal gases, phi = 1.

Reaction step 25.

Using solution 1.	Supersaturated Ca-SO4 water
Using kinetics 1.	

Kinetics 1.	

	Time step: 30000 seconds  (Incremented time: 80000 seconds)

	Rate name       Delta Moles Total Moles   Reactant        Coefficient

	Gypsum            2.106e-03   3.948e-02   Gypsum                    1

-----------------------------Solution composition------------------------------

	Elements           Molality       Moles

	Ca                2.211e-02   1.105e-01
	S                 2.211e-02   1.105e-01

----------------------------Description of solution----------------------------

                                       pH  =   7.079      Charge balance
                                       pe  =  11.635      Adjusted to redox equilibrium
      Specific Conductance (µS/cm,  25°C)  = 3438
                          Density (g/cm³)  =   0.99992
                               Volume (L)  =   5.01402
                        Viscosity (mPa s)  =   0.90113
                        Activity of water  =   0.999
                 Ionic strength (mol/kgw)  =   5.845e-02
                       Mass of water (kg)  =   4.999e+00
                 Total alkalinity (eq/kg)  =   1.847e-16
                         Temperature (°C)  =  25.00
                  Electrical balance (eq)  =  -5.210e-11
 Percent error, 100*(Cat-|An|)/(Cat+|An|)  =  -0.00
                               Iterations  =  92 (230 overall)
                                  Total H  = 5.549042e+02
                                  Total O  = 2.778942e+02

----------------------------Distribution of species----------------------------

                                               Log       Log       Log    mole V
   Species          Molality    Activity  Molality  Activity     Gamma   cm³/mol

   OH-             1.516e-07   1.214e-07    -6.819    -6.916    -0.096     -3.85
   H+              9.835e-08   8.334e-08    -7.007    -7.079    -0.072      0.00
   H2O             5.551e+01   9.994e-01     1.744    -0.000     0.000     18.07
Ca            2.211e-02
   Ca+2            1.461e-02   6.627e-03    -1.835    -2.179    -0.343    -17.58
   CaSO4           7.496e-03   7.598e-03    -2.125    -2.119     0.006      7.50
   CaOH+           1.624e-08   1.319e-08    -7.789    -7.880    -0.090     (0)  
   CaHSO4+         5.125e-09   4.162e-09    -8.290    -8.381    -0.090     (0)  
H(0)          0.000e+00
   H2              0.000e+00   0.000e+00   -40.583   -40.577     0.006     28.61
O(0)          1.174e-11
   O2              5.868e-12   5.948e-12   -11.231   -11.226     0.006     30.40
S(-2)         0.000e+00
   HS-             0.000e+00   0.000e+00  -125.232  -125.329    -0.096     20.80
   H2S             0.000e+00   0.000e+00  -125.472  -125.466     0.006     36.27
   S-2             0.000e+00   0.000e+00  -130.814  -131.167    -0.353     (0)  
   (H2S)2          0.000e+00   0.000e+00  -252.216  -252.210     0.006     30.09
S(6)          2.211e-02
   SO4-2           1.461e-02   6.447e-03    -1.835    -2.191    -0.355     22.26
   CaSO4           7.496e-03   7.598e-03    -2.125    -2.119     0.006      7.50
   HSO4-           6.432e-08   5.224e-08    -7.192    -7.282    -0.090     40.47
   CaHSO4+         5.125e-09   4.162e-09    -8.290    -8.381    -0.090     (0)  

------------------------------Saturation indices-------------------------------

  Phase               SI** log IAP   log K(298 K,   1 atm)

  Anhydrite        -0.09     -4.37   -4.28  CaSO4
  Gypsum            0.21     -4.37   -4.58  CaSO4:2H2O
  H2(g)           -37.48    -40.58   -3.10  H2
  H2O(g)           -1.50     -0.00    1.50  H2O
  H2S(g)         -124.47   -132.41   -7.94  H2S
  O2(g)            -8.33    -11.23   -2.89  O2
  Sulfur          -92.92    -88.04    4.88  S

**For a gas, SI = log10(fugacity). Fugacity = pressure * phi / 1 atm.
  For ideal gases, phi = 1.

Reaction step 26.

Using solution 1.	Supersaturated Ca-SO4 water
Using kinetics 1.	

Kinetics 1.	

	Time step: 20000 seconds  (Incremented time: 100000 seconds)

	Rate name       Delta Moles Total Moles   Reactant        Coefficient

	Gypsum            9.577e-04   4.044e-02   Gypsum                    1

-----------------------------Solution composition------------------------------

	Elements           Molality       Moles

	Ca                2.192e-02   1.096e-01
	S                 2.192e-02   1.096e-01

----------------------------Description of solution----------------------------

                                       pH  =   7.079      Charge balance
                                       pe  =  11.635      Adjusted to redox equilibrium
      Specific Conductance (µS/cm,  25°C)  = 3412
                          Density (g/cm³)  =   0.99990
                               Volume (L)  =   5.01398
                        Viscosity (mPa s)  =   0.90107
                        Activity of water  =   0.999
                 Ionic strength (mol/kgw)  =   5.801e-02
                       Mass of water (kg)  =   4.999e+00
                 Total alkalinity (eq/kg)  =   1.805e-16
                         Temperature (°C)  =  25.00
                  Electrical balance (eq)  =  -1.781e-10
 Percent error, 100*(Cat-|An|)/(Cat+|An|)  =  -0.00
                               Iterations  =  53 (132 overall)
                                  Total H  = 5.549004e+02
                                  Total O  = 2.778884e+02

----------------------------Distribution of species----------------------------

                                               Log       Log       Log    mole V
   Species          Molality    Activity  Molality  Activity     Gamma   cm³/mol

   OH-             1.513e-07   1.213e-07    -6.820    -6.916    -0.096     -3.85
   H+              9.840e-08   8.341e-08    -7.007    -7.079    -0.072      0.00
   H2O             5.551e+01   9.994e-01     1.744    -0.000     0.000     18.07
Ca            2.192e-02
   Ca+2            1.450e-02   6.591e-03    -1.839    -2.181    -0.343    -17.58
   CaSO4           7.416e-03   7.515e-03    -2.130    -2.124     0.006      7.50
   CaOH+           1.613e-08   1.310e-08    -7.792    -7.883    -0.090     (0)  
   CaHSO4+         5.071e-09   4.121e-09    -8.295    -8.385    -0.090     (0)  
H(0)          0.000e+00
   H2              0.000e+00   0.000e+00   -40.583   -40.577     0.006     28.61
O(0)          1.174e-11
   O2              5.869e-12   5.948e-12   -11.231   -11.226     0.006     30.40
S(-2)         0.000e+00
   HS-             0.000e+00   0.000e+00  -125.234  -125.330    -0.096     20.80
   H2S             0.000e+00   0.000e+00  -125.473  -125.468     0.006     36.27
   S-2             0.000e+00   0.000e+00  -130.818  -131.170    -0.352     (0)  
   (H2S)2          0.000e+00   0.000e+00  -252.219  -252.213     0.006     30.09
S(6)          2.192e-02
   SO4-2           1.450e-02   6.413e-03    -1.839    -2.193    -0.354     22.23
   CaSO4           7.416e-03   7.515e-03    -2.130    -2.124     0.006      7.50
   HSO4-           6.400e-08   5.200e-08    -7.194    -7.284    -0.090     40.47
   CaHSO4+         5.071e-09   4.121e-09    -8.295    -8.385    -0.090     (0)  

------------------------------Saturation indices-------------------------------

  Phase               SI** log IAP   log K(298 K,   1 atm)

  Anhydrite        -0.10     -4.37   -4.28  CaSO4
  Gypsum            0.21     -4.37   -4.58  CaSO4:2H2O
  H2(g)           -37.48    -40.58   -3.10  H2
  H2O(g)           -1.50     -0.00    1.50  H2O
  H2S(g)         -124.47   -132.41   -7.94  H2S
  O2(g)            -8.33    -11.23   -2.89  O2
  Sulfur          -92.92    -88.04    4.88  S

**For a gas, SI = log10(fugacity). Fugacity = pressure * phi / 1 atm.
  For ideal gases, phi = 1.

------------------
End of simulation.
------------------

------------------------------------
Reading input data for simulation 2.
------------------------------------

----------------------------------
End of Run after 0.025093 Seconds.
----------------------------------

