   Input file: /home/zhouw/Documents/Codes/ReactiveSoluteTransport/Benchmark/gypsum_single_fracture_10cm_ap5mm/results_total_injection_reference_volume_precipitation_20260426_174012/phreeqc/tt_1e05/tt_1e05.pqi
  Output file: /home/zhouw/Documents/Codes/ReactiveSoluteTransport/Benchmark/gypsum_single_fracture_10cm_ap5mm/results_total_injection_reference_volume_precipitation_20260426_174012/phreeqc/tt_1e05/tt_1e05.pqo
Database file: /home/zhouw/Documents/Codes/phreeqc-3.8.6-17100/database/phreeqc.dat

------------------
Reading data base.
------------------

	SOLUTION_MASTER_SPECIES
	SOLUTION_SPECIES
	PHASES
	GAS_BINARY_PARAMETERS
	EXCHANGE_MASTER_SPECIES
	EXCHANGE_SPECIES
	SURFACE_MASTER_SPECIES
	SURFACE_SPECIES
	MEAN_GAMMAS
	RATES
	END
------------------------------------
Reading input data for simulation 1.
------------------------------------

	TITLE Kinetic gypsum precipitation from supersaturated water for t_cross=1.000000e+05 s
	SOLUTION 1 Supersaturated Ca-SO4 water
	    temp    25.0
	    units   mmol/kgw
	    pH      7.0 charge
	    Ca      3.000000000000e+01
	    S(6)    3.000000000000e+01
	    water  5.000000000000e-02
	RATES
	Gypsum
	start
	  10 omega = SR("Gypsum")
	  20 IF omega <= 1 THEN SAVE 0 : END
	  30 A = PARM(1)
	  40 k1 = PARM(2)
	  50 k2 = PARM(3)
	  60 x = SQRT(omega) - 1
	  70 rate = -A * (k1 * x^10 + k2 * x^2)
	  80 SAVE rate * TIME
	end
	KINETICS 1
	Gypsum
	    m      0.0
	    m0     0.0
	    parms  2.000000000000e-02  1.000000000000e+00  5.000000000000e-07
	    tol    1e-8
	    steps  1 1 1 2 3 2 10 10 20 30 20 100 100 200 300 200 1000 1000 2000 3000 2000 10000 10000 20000 30000 20000
	    cvode  true
	INCREMENTAL_REACTIONS true
	SELECTED_OUTPUT
	    file                tt_1e05.sel
	    reset               false
	    totals              Ca S(6)
	    kinetics            Gypsum
	    saturation_indices  Gypsum
	USER_PUNCH
	    headings Time_s pH SI_Gypsum SR_Gypsum V_Precip_cm3 DV_ref_m3
	start
	  10 PUNCH TOTAL_TIME
	  20 PUNCH -LA("H+")
	  30 PUNCH SI("Gypsum")
	  40 PUNCH SR("Gypsum")
	  50 v_precip = KIN("Gypsum") * 73.9
	  60 PUNCH v_precip
	  70 PUNCH -v_precip * 1e-6
	end
	END
-----
TITLE
-----

 Kinetic gypsum precipitation from supersaturated water for t_cross=1.000000e+05 s

-------------------------------------------
Beginning of initial solution calculations.
-------------------------------------------

Initial solution 1.	Supersaturated Ca-SO4 water

-----------------------------Solution composition------------------------------

	Elements           Molality       Moles

	Ca                3.000e-02   1.500e-03
	S(6)              3.000e-02   1.500e-03

----------------------------Description of solution----------------------------

                                       pH  =   7.092      Charge balance
                                       pe  =   4.000    
      Specific Conductance (µS/cm,  25°C)  = 4446
                          Density (g/cm³)  =   1.00092
                               Volume (L)  =   0.05016
                        Viscosity (mPa s)  =   0.90373
                        Activity of water  =   0.999
                 Ionic strength (mol/kgw)  =   7.635e-02
                       Mass of water (kg)  =   5.000e-02
                 Total alkalinity (eq/kg)  =   2.064e-16
                         Temperature (°C)  =  25.00
                  Electrical balance (eq)  =   1.223e-12
 Percent error, 100*(Cat-|An|)/(Cat+|An|)  =   0.00
                               Iterations  =   5
                                  Total H  = 5.550622e+00
                                  Total O  = 2.781311e+00

----------------------------Distribution of species----------------------------

                                               Log       Log       Log    mole V
   Species          Molality    Activity  Molality  Activity     Gamma   cm³/mol

   OH-             1.600e-07   1.251e-07    -6.796    -6.903    -0.107     -3.79
   H+              9.668e-08   8.087e-08    -7.015    -7.092    -0.078      0.00
   H2O             5.551e+01   9.992e-01     1.744    -0.000     0.000     18.07
Ca            3.000e-02
   Ca+2            1.909e-02   8.046e-03    -1.719    -2.094    -0.375    -17.51
   CaSO4           1.091e-02   1.111e-02    -1.962    -1.954     0.008      7.50
   CaOH+           2.071e-08   1.650e-08    -7.684    -7.783    -0.099     (0)  
   CaHSO4+         7.410e-09   5.903e-09    -8.130    -8.229    -0.099     (0)  
H(0)          9.098e-26
   H2              4.549e-26   4.630e-26   -25.342   -25.334     0.008     28.61
O(0)          0.000e+00
   O2              0.000e+00   0.000e+00   -41.719   -41.712     0.008     30.40
S(6)          3.000e-02
   SO4-2           1.909e-02   7.762e-03    -1.719    -2.110    -0.391     23.29
   CaSO4           1.091e-02   1.111e-02    -1.962    -1.954     0.008      7.50
   HSO4-           7.660e-08   6.102e-08    -7.116    -7.215    -0.099     40.50
   CaHSO4+         7.410e-09   5.903e-09    -8.130    -8.229    -0.099     (0)  

------------------------------Saturation indices-------------------------------

  Phase               SI** log IAP   log K(298 K,   1 atm)

  Anhydrite         0.07     -4.20   -4.28  CaSO4
  Gypsum            0.38     -4.21   -4.58  CaSO4:2H2O
  H2(g)           -22.23    -25.33   -3.10  H2
  H2O(g)           -1.50     -0.00    1.50  H2O
  O2(g)           -38.82    -41.71   -2.89  O2

**For a gas, SI = log10(fugacity). Fugacity = pressure * phi / 1 atm.
  For ideal gases, phi = 1.

-----------------------------------------
Beginning of batch-reaction calculations.
-----------------------------------------

Reaction step 1.

Using solution 1.	Supersaturated Ca-SO4 water
Using kinetics 1.	

Kinetics 1.	

	Time step: 1 seconds  (Incremented time: 1 seconds)

	Rate name       Delta Moles Total Moles   Reactant        Coefficient

	Gypsum            3.624e-05   3.624e-05   Gypsum                    1

-----------------------------Solution composition------------------------------

	Elements           Molality       Moles

	Ca                2.928e-02   1.464e-03
	S                 2.928e-02   1.464e-03

----------------------------Description of solution----------------------------

                                       pH  =   7.091      Charge balance
                                       pe  =  -1.496      Adjusted to redox equilibrium
      Specific Conductance (µS/cm,  25°C)  = 4355
                          Density (g/cm³)  =   1.00083
                               Volume (L)  =   0.05016
                        Viscosity (mPa s)  =   0.90351
                        Activity of water  =   0.999
                 Ionic strength (mol/kgw)  =   7.473e-02
                       Mass of water (kg)  =   5.000e-02
                 Total alkalinity (eq/kg)  =   2.074e-16
                         Temperature (°C)  =  25.00
                  Electrical balance (eq)  =   1.223e-12
 Percent error, 100*(Cat-|An|)/(Cat+|An|)  =   0.00
                               Iterations  = 253 (550 overall)
                                  Total H  = 5.550477e+00
                                  Total O  = 2.781093e+00

----------------------------Distribution of species----------------------------

                                               Log       Log       Log    mole V
   Species          Molality    Activity  Molality  Activity     Gamma   cm³/mol

   OH-             1.593e-07   1.247e-07    -6.798    -6.904    -0.106     -3.80
   H+              9.682e-08   8.107e-08    -7.014    -7.091    -0.077      0.00
   H2O             5.551e+01   9.992e-01     1.744    -0.000     0.000     18.07
Ca            2.928e-02
   Ca+2            1.868e-02   7.923e-03    -1.729    -2.101    -0.373    -17.52
   CaSO4           1.059e-02   1.078e-02    -1.975    -1.968     0.007      7.50
   CaOH+           2.031e-08   1.621e-08    -7.692    -7.790    -0.098     (0)  
   CaHSO4+         7.197e-09   5.743e-09    -8.143    -8.241    -0.098     (0)  
H(0)          8.965e-15
   H2              4.482e-15   4.560e-15   -14.348   -14.341     0.007     28.61
O(0)          0.000e+00
   O2              0.000e+00   0.000e+00   -63.706   -63.699     0.007     30.40
S(-2)         9.441e-21
   HS-             6.107e-21   4.784e-21   -20.214   -20.320    -0.106     20.83
   H2S             3.333e-21   3.391e-21   -20.477   -20.470     0.007     36.27
   S-2             1.729e-26   7.127e-27   -25.762   -26.147    -0.385     (0)  
   (H2S)2          0.000e+00   0.000e+00   -42.225   -42.218     0.007     30.09
S(6)          2.928e-02
   SO4-2           1.868e-02   7.648e-03    -1.729    -2.116    -0.388     23.20
   CaSO4           1.059e-02   1.078e-02    -1.975    -1.968     0.007      7.50
   HSO4-           7.556e-08   6.029e-08    -7.122    -7.220    -0.098     40.50
   CaHSO4+         7.197e-09   5.743e-09    -8.143    -8.241    -0.098     (0)  

------------------------------Saturation indices-------------------------------

  Phase               SI** log IAP   log K(298 K,   1 atm)

  Anhydrite         0.06     -4.22   -4.28  CaSO4
  Gypsum            0.36     -4.22   -4.58  CaSO4:2H2O
  H2(g)           -11.24    -14.34   -3.10  H2
  H2O(g)           -1.50     -0.00    1.50  H2O
  H2S(g)          -19.48    -27.41   -7.94  H2S
  O2(g)           -60.81    -63.70   -2.89  O2
  Sulfur          -14.16     -9.28    4.88  S

**For a gas, SI = log10(fugacity). Fugacity = pressure * phi / 1 atm.
  For ideal gases, phi = 1.

Reaction step 2.

Using solution 1.	Supersaturated Ca-SO4 water
Using kinetics 1.	

Kinetics 1.	

	Time step: 1 seconds  (Incremented time: 2 seconds)

	Rate name       Delta Moles Total Moles   Reactant        Coefficient

	Gypsum            2.505e-05   6.129e-05   Gypsum                    1

-----------------------------Solution composition------------------------------

	Elements           Molality       Moles

	Ca                2.878e-02   1.439e-03
	S                 2.878e-02   1.439e-03

----------------------------Description of solution----------------------------

                                       pH  =   7.090      Charge balance
                                       pe  =  -1.797      Adjusted to redox equilibrium
      Specific Conductance (µS/cm,  25°C)  = 4292
                          Density (g/cm³)  =   1.00077
                               Volume (L)  =   0.05016
                        Viscosity (mPa s)  =   0.90335
                        Activity of water  =   0.999
                 Ionic strength (mol/kgw)  =   7.361e-02
                       Mass of water (kg)  =   5.000e-02
                 Total alkalinity (eq/kg)  =   2.065e-16
                         Temperature (°C)  =  25.00
                  Electrical balance (eq)  =   1.223e-12
 Percent error, 100*(Cat-|An|)/(Cat+|An|)  =   0.00
                               Iterations  =  41 (94 overall)
                                  Total H  = 5.550377e+00
                                  Total O  = 2.780943e+00

----------------------------Distribution of species----------------------------

                                               Log       Log       Log    mole V
   Species          Molality    Activity  Molality  Activity     Gamma   cm³/mol

   OH-             1.588e-07   1.245e-07    -6.799    -6.905    -0.105     -3.80
   H+              9.692e-08   8.121e-08    -7.014    -7.090    -0.077      0.00
   H2O             5.551e+01   9.992e-01     1.744    -0.000     0.000     18.07
Ca            2.878e-02
   Ca+2            1.840e-02   7.837e-03    -1.735    -2.106    -0.371    -17.52
   CaSO4           1.037e-02   1.055e-02    -1.984    -1.977     0.007      7.50
   CaOH+           2.003e-08   1.600e-08    -7.698    -7.796    -0.098     (0)  
   CaHSO4+         7.050e-09   5.632e-09    -8.152    -8.249    -0.098     (0)  
H(0)          3.602e-14
   H2              1.801e-14   1.832e-14   -13.744   -13.737     0.007     28.61
O(0)          0.000e+00
   O2              0.000e+00   0.000e+00   -64.914   -64.906     0.007     30.40
S(-2)         2.436e-18
   HS-             1.574e-18   1.235e-18   -17.803   -17.908    -0.105     20.83
   H2S             8.621e-19   8.769e-19   -18.064   -18.057     0.007     36.27
   S-2             4.435e-24   1.837e-24   -23.353   -23.736    -0.383     (0)  
   (H2S)2          3.984e-38   4.052e-38   -37.400   -37.392     0.007     30.09
S(6)          2.878e-02
   SO4-2           1.840e-02   7.569e-03    -1.735    -2.121    -0.386     23.14
   CaSO4           1.037e-02   1.055e-02    -1.984    -1.977     0.007      7.50
   HSO4-           7.483e-08   5.977e-08    -7.126    -7.224    -0.098     40.50
   CaHSO4+         7.050e-09   5.632e-09    -8.152    -8.249    -0.098     (0)  

------------------------------Saturation indices-------------------------------

  Phase               SI** log IAP   log K(298 K,   1 atm)

  Anhydrite         0.05     -4.23   -4.28  CaSO4
  Gypsum            0.35     -4.23   -4.58  CaSO4:2H2O
  H2(g)           -10.64    -13.74   -3.10  H2
  H2O(g)           -1.50     -0.00    1.50  H2O
  H2S(g)          -17.06    -25.00   -7.94  H2S
  O2(g)           -62.01    -64.91   -2.89  O2
  Sulfur          -12.35     -7.47    4.88  S

**For a gas, SI = log10(fugacity). Fugacity = pressure * phi / 1 atm.
  For ideal gases, phi = 1.

Reaction step 3.

Using solution 1.	Supersaturated Ca-SO4 water
Using kinetics 1.	

Kinetics 1.	

	Time step: 1 seconds  (Incremented time: 3 seconds)

	Rate name       Delta Moles Total Moles   Reactant        Coefficient

	Gypsum            1.895e-05   8.024e-05   Gypsum                    1

-----------------------------Solution composition------------------------------

	Elements           Molality       Moles

	Ca                2.840e-02   1.420e-03
	S                 2.840e-02   1.420e-03

----------------------------Description of solution----------------------------

                                       pH  =   7.090      Charge balance
                                       pe  =  -1.725      Adjusted to redox equilibrium
      Specific Conductance (µS/cm,  25°C)  = 4245
                          Density (g/cm³)  =   1.00072
                               Volume (L)  =   0.05015
                        Viscosity (mPa s)  =   0.90323
                        Activity of water  =   0.999
                 Ionic strength (mol/kgw)  =   7.277e-02
                       Mass of water (kg)  =   5.000e-02
                 Total alkalinity (eq/kg)  =   1.854e-16
                         Temperature (°C)  =  25.00
                  Electrical balance (eq)  =   1.223e-12
 Percent error, 100*(Cat-|An|)/(Cat+|An|)  =   0.00
                               Iterations  =  35 (82 overall)
                                  Total H  = 5.550301e+00
                                  Total O  = 2.780829e+00

----------------------------Distribution of species----------------------------

                                               Log       Log       Log    mole V
   Species          Molality    Activity  Molality  Activity     Gamma   cm³/mol

   OH-             1.584e-07   1.244e-07    -6.800    -6.905    -0.105     -3.80
   H+              9.700e-08   8.132e-08    -7.013    -7.090    -0.077      0.00
   H2O             5.551e+01   9.992e-01     1.744    -0.000     0.000     18.07
Ca            2.840e-02
   Ca+2            1.819e-02   7.772e-03    -1.740    -2.109    -0.369    -17.52
   CaSO4           1.021e-02   1.038e-02    -1.991    -1.984     0.007      7.50
   CaOH+           1.982e-08   1.585e-08    -7.703    -7.800    -0.097     (0)  
   CaHSO4+         6.939e-09   5.548e-09    -8.159    -8.256    -0.097     (0)  
H(0)          2.594e-14
   H2              1.297e-14   1.319e-14   -13.887   -13.880     0.007     28.61
O(0)          0.000e+00
   O2              0.000e+00   0.000e+00   -64.628   -64.621     0.007     30.40
S(-2)         6.499e-19
   HS-             4.196e-19   3.295e-19   -18.377   -18.482    -0.105     20.83
   H2S             2.304e-19   2.343e-19   -18.638   -18.630     0.007     36.27
   S-2             1.177e-24   4.893e-25   -23.929   -24.310    -0.381     (0)  
   (H2S)2          2.844e-39   2.892e-39   -38.546   -38.539     0.007     30.09
S(6)          2.840e-02
   SO4-2           1.819e-02   7.509e-03    -1.740    -2.124    -0.384     23.09
   CaSO4           1.021e-02   1.038e-02    -1.991    -1.984     0.007      7.50
   HSO4-           7.427e-08   5.937e-08    -7.129    -7.226    -0.097     40.50
   CaHSO4+         6.939e-09   5.548e-09    -8.159    -8.256    -0.097     (0)  

------------------------------Saturation indices-------------------------------

  Phase               SI** log IAP   log K(298 K,   1 atm)

  Anhydrite         0.04     -4.23   -4.28  CaSO4
  Gypsum            0.35     -4.23   -4.58  CaSO4:2H2O
  H2(g)           -10.78    -13.88   -3.10  H2
  H2O(g)           -1.50     -0.00    1.50  H2O
  H2S(g)          -17.64    -25.57   -7.94  H2S
  O2(g)           -61.73    -64.62   -2.89  O2
  Sulfur          -12.78     -7.90    4.88  S

**For a gas, SI = log10(fugacity). Fugacity = pressure * phi / 1 atm.
  For ideal gases, phi = 1.

Reaction step 4.

Using solution 1.	Supersaturated Ca-SO4 water
Using kinetics 1.	

Kinetics 1.	

	Time step: 2 seconds  (Incremented time: 5 seconds)

	Rate name       Delta Moles Total Moles   Reactant        Coefficient

	Gypsum            2.774e-05   1.080e-04   Gypsum                    1

-----------------------------Solution composition------------------------------

	Elements           Molality       Moles

	Ca                2.784e-02   1.392e-03
	S                 2.784e-02   1.392e-03

----------------------------Description of solution----------------------------

                                       pH  =   7.089      Charge balance
                                       pe  =   0.028      Adjusted to redox equilibrium
      Specific Conductance (µS/cm,  25°C)  = 4175
                          Density (g/cm³)  =   1.00065
                               Volume (L)  =   0.05015
                        Viscosity (mPa s)  =   0.90305
                        Activity of water  =   0.999
                 Ionic strength (mol/kgw)  =   7.152e-02
                       Mass of water (kg)  =   5.000e-02
                 Total alkalinity (eq/kg)  =   1.941e-16
                         Temperature (°C)  =  25.00
                  Electrical balance (eq)  =   1.224e-12
 Percent error, 100*(Cat-|An|)/(Cat+|An|)  =   0.00
                               Iterations  =  82 (179 overall)
                                  Total H  = 5.550190e+00
                                  Total O  = 2.780663e+00

----------------------------Distribution of species----------------------------

                                               Log       Log       Log    mole V
   Species          Molality    Activity  Molality  Activity     Gamma   cm³/mol

   OH-             1.578e-07   1.241e-07    -6.802    -6.906    -0.104     -3.81
   H+              9.711e-08   8.149e-08    -7.013    -7.089    -0.076      0.00
   H2O             5.551e+01   9.992e-01     1.744    -0.000     0.000     18.07
Ca            2.784e-02
   Ca+2            1.788e-02   7.675e-03    -1.748    -2.115    -0.367    -17.53
   CaSO4           9.962e-03   1.013e-02    -2.002    -1.994     0.007      7.50
   CaOH+           1.951e-08   1.562e-08    -7.710    -7.806    -0.097     (0)  
   CaHSO4+         6.777e-09   5.425e-09    -8.169    -8.266    -0.097     (0)  
H(0)          8.123e-18
   H2              4.062e-18   4.129e-18   -17.391   -17.384     0.007     28.61
O(0)          0.000e+00
   O2              0.000e+00   0.000e+00   -57.620   -57.612     0.007     30.40
S(-2)         6.184e-33
   HS-             3.987e-33   3.136e-33   -32.399   -32.504    -0.104     20.83
   H2S             2.197e-33   2.234e-33   -32.658   -32.651     0.007     36.27
   S-2             1.113e-38   4.648e-39   -37.954   -38.333    -0.379     (0)  
   (H2S)2          0.000e+00   0.000e+00   -66.587   -66.580     0.007     30.09
S(6)          2.784e-02
   SO4-2           1.788e-02   7.420e-03    -1.748    -2.130    -0.382     23.02
   CaSO4           9.962e-03   1.013e-02    -2.002    -1.994     0.007      7.50
   HSO4-           7.344e-08   5.879e-08    -7.134    -7.231    -0.097     40.49
   CaHSO4+         6.777e-09   5.425e-09    -8.169    -8.266    -0.097     (0)  

------------------------------Saturation indices-------------------------------

  Phase               SI** log IAP   log K(298 K,   1 atm)

  Anhydrite         0.03     -4.24   -4.28  CaSO4
  Gypsum            0.34     -4.25   -4.58  CaSO4:2H2O
  H2(g)           -14.28    -17.38   -3.10  H2
  H2O(g)           -1.50     -0.00    1.50  H2O
  H2S(g)          -31.66    -39.59   -7.94  H2S
  O2(g)           -54.72    -57.61   -2.89  O2
  Sulfur          -23.30    -18.42    4.88  S

**For a gas, SI = log10(fugacity). Fugacity = pressure * phi / 1 atm.
  For ideal gases, phi = 1.

Reaction step 5.

Using solution 1.	Supersaturated Ca-SO4 water
Using kinetics 1.	

Kinetics 1.	

	Time step: 3 seconds  (Incremented time: 8 seconds)

	Rate name       Delta Moles Total Moles   Reactant        Coefficient

	Gypsum            2.819e-05   1.362e-04   Gypsum                    1

-----------------------------Solution composition------------------------------

	Elements           Molality       Moles

	Ca                2.728e-02   1.364e-03
	S                 2.728e-02   1.364e-03

----------------------------Description of solution----------------------------

                                       pH  =   7.088      Charge balance
                                       pe  =  -1.630      Adjusted to redox equilibrium
      Specific Conductance (µS/cm,  25°C)  = 4103
                          Density (g/cm³)  =   1.00058
                               Volume (L)  =   0.05015
                        Viscosity (mPa s)  =   0.90287
                        Activity of water  =   0.999
                 Ionic strength (mol/kgw)  =   7.025e-02
                       Mass of water (kg)  =   5.000e-02
                 Total alkalinity (eq/kg)  =   1.930e-16
                         Temperature (°C)  =  25.00
                  Electrical balance (eq)  =   1.224e-12
 Percent error, 100*(Cat-|An|)/(Cat+|An|)  =   0.00
                               Iterations  = 287 (555 overall)
                                  Total H  = 5.550077e+00
                                  Total O  = 2.780494e+00

----------------------------Distribution of species----------------------------

                                               Log       Log       Log    mole V
   Species          Molality    Activity  Molality  Activity     Gamma   cm³/mol

   OH-             1.572e-07   1.239e-07    -6.803    -6.907    -0.104     -3.81
   H+              9.722e-08   8.165e-08    -7.012    -7.088    -0.076      0.00
   H2O             5.551e+01   9.992e-01     1.744    -0.000     0.000     18.07
Ca            2.728e-02
   Ca+2            1.756e-02   7.576e-03    -1.755    -2.121    -0.365    -17.53
   CaSO4           9.716e-03   9.875e-03    -2.013    -2.005     0.007      7.50
   CaOH+           1.920e-08   1.539e-08    -7.717    -7.813    -0.096     (0)  
   CaHSO4+         6.613e-09   5.300e-09    -8.180    -8.276    -0.096     (0)  
H(0)          1.692e-14
   H2              8.462e-15   8.600e-15   -14.073   -14.066     0.007     28.61
O(0)          0.000e+00
   O2              0.000e+00   0.000e+00   -64.257   -64.250     0.007     30.40
S(-2)         1.151e-19
   HS-             7.411e-20   5.838e-20   -19.130   -19.234    -0.104     20.82
   H2S             4.101e-20   4.168e-20   -19.387   -19.380     0.007     36.27
   S-2             2.056e-25   8.636e-26   -24.687   -25.064    -0.377     (0)  
   (H2S)2          0.000e+00   0.000e+00   -40.045   -40.038     0.007     30.09
S(6)          2.728e-02
   SO4-2           1.756e-02   7.329e-03    -1.755    -2.135    -0.380     22.95
   CaSO4           9.716e-03   9.875e-03    -2.013    -2.005     0.007      7.50
   HSO4-           7.260e-08   5.819e-08    -7.139    -7.235    -0.096     40.49
   CaHSO4+         6.613e-09   5.300e-09    -8.180    -8.276    -0.096     (0)  

------------------------------Saturation indices-------------------------------

  Phase               SI** log IAP   log K(298 K,   1 atm)

  Anhydrite         0.02     -4.26   -4.28  CaSO4
  Gypsum            0.33     -4.26   -4.58  CaSO4:2H2O
  H2(g)           -10.96    -14.07   -3.10  H2
  H2O(g)           -1.50     -0.00    1.50  H2O
  H2S(g)          -18.39    -26.32   -7.94  H2S
  O2(g)           -61.36    -64.25   -2.89  O2
  Sulfur          -13.35     -8.46    4.88  S

**For a gas, SI = log10(fugacity). Fugacity = pressure * phi / 1 atm.
  For ideal gases, phi = 1.

Reaction step 6.

Using solution 1.	Supersaturated Ca-SO4 water
Using kinetics 1.	

Kinetics 1.	

	Time step: 2 seconds  (Incremented time: 10 seconds)

	Rate name       Delta Moles Total Moles   Reactant        Coefficient

	Gypsum            1.398e-05   1.501e-04   Gypsum                    1

-----------------------------Solution composition------------------------------

	Elements           Molality       Moles

	Ca                2.700e-02   1.350e-03
	S                 2.700e-02   1.350e-03

----------------------------Description of solution----------------------------

                                       pH  =   7.088      Charge balance
                                       pe  =  -1.507      Adjusted to redox equilibrium
      Specific Conductance (µS/cm,  25°C)  = 4068
                          Density (g/cm³)  =   1.00054
                               Volume (L)  =   0.05015
                        Viscosity (mPa s)  =   0.90277
                        Activity of water  =   0.999
                 Ionic strength (mol/kgw)  =   6.962e-02
                       Mass of water (kg)  =   4.999e-02
                 Total alkalinity (eq/kg)  =   1.966e-16
                         Temperature (°C)  =  25.00
                  Electrical balance (eq)  =   1.224e-12
 Percent error, 100*(Cat-|An|)/(Cat+|An|)  =   0.00
                               Iterations  =  32 (73 overall)
                                  Total H  = 5.550021e+00
                                  Total O  = 2.780410e+00

----------------------------Distribution of species----------------------------

                                               Log       Log       Log    mole V
   Species          Molality    Activity  Molality  Activity     Gamma   cm³/mol

   OH-             1.569e-07   1.237e-07    -6.804    -6.908    -0.103     -3.81
   H+              9.728e-08   8.174e-08    -7.012    -7.088    -0.076      0.00
   H2O             5.551e+01   9.992e-01     1.744    -0.000     0.000     18.07
Ca            2.700e-02
   Ca+2            1.741e-02   7.527e-03    -1.759    -2.123    -0.364    -17.54
   CaSO4           9.594e-03   9.749e-03    -2.018    -2.011     0.007      7.50
   CaOH+           1.904e-08   1.527e-08    -7.720    -7.816    -0.096     (0)  
   CaHSO4+         6.531e-09   5.238e-09    -8.185    -8.281    -0.096     (0)  
H(0)          9.604e-15
   H2              4.802e-15   4.880e-15   -14.319   -14.312     0.007     28.61
O(0)          0.000e+00
   O2              0.000e+00   0.000e+00   -63.764   -63.757     0.007     30.40
S(-2)         1.187e-20
   HS-             7.636e-21   6.021e-21   -20.117   -20.220    -0.103     20.82
   H2S             4.234e-21   4.303e-21   -20.373   -20.366     0.007     36.27
   S-2             2.112e-26   8.896e-27   -25.675   -26.051    -0.376     (0)  
   (H2S)2          0.000e+00   0.000e+00   -42.018   -42.011     0.007     30.09
S(6)          2.700e-02
   SO4-2           1.741e-02   7.284e-03    -1.759    -2.138    -0.378     22.92
   CaSO4           9.594e-03   9.749e-03    -2.018    -2.011     0.007      7.50
   HSO4-           7.217e-08   5.788e-08    -7.142    -7.237    -0.096     40.49
   CaHSO4+         6.531e-09   5.238e-09    -8.185    -8.281    -0.096     (0)  

------------------------------Saturation indices-------------------------------

  Phase               SI** log IAP   log K(298 K,   1 atm)

  Anhydrite         0.02     -4.26   -4.28  CaSO4
  Gypsum            0.32     -4.26   -4.58  CaSO4:2H2O
  H2(g)           -11.21    -14.31   -3.10  H2
  H2O(g)           -1.50     -0.00    1.50  H2O
  H2S(g)          -19.37    -27.31   -7.94  H2S
  O2(g)           -60.87    -63.76   -2.89  O2
  Sulfur          -14.09     -9.20    4.88  S

**For a gas, SI = log10(fugacity). Fugacity = pressure * phi / 1 atm.
  For ideal gases, phi = 1.

Reaction step 7.

Using solution 1.	Supersaturated Ca-SO4 water
Using kinetics 1.	

Kinetics 1.	

	Time step: 10 seconds  (Incremented time: 20 seconds)

	Rate name       Delta Moles Total Moles   Reactant        Coefficient

	Gypsum            4.422e-05   1.944e-04   Gypsum                    1

-----------------------------Solution composition------------------------------

	Elements           Molality       Moles

	Ca                2.612e-02   1.306e-03
	S                 2.612e-02   1.306e-03

----------------------------Description of solution----------------------------

                                       pH  =   7.086      Charge balance
                                       pe  =  -1.199      Adjusted to redox equilibrium
      Specific Conductance (µS/cm,  25°C)  = 3955
                          Density (g/cm³)  =   1.00043
                               Volume (L)  =   0.05015
                        Viscosity (mPa s)  =   0.90249
                        Activity of water  =   0.999
                 Ionic strength (mol/kgw)  =   6.762e-02
                       Mass of water (kg)  =   4.999e-02
                 Total alkalinity (eq/kg)  =   1.985e-16
                         Temperature (°C)  =  25.00
                  Electrical balance (eq)  =   1.230e-12
 Percent error, 100*(Cat-|An|)/(Cat+|An|)  =   0.00
                               Iterations  =  52 (131 overall)
                                  Total H  = 5.549844e+00
                                  Total O  = 2.780145e+00

----------------------------Distribution of species----------------------------

                                               Log       Log       Log    mole V
   Species          Molality    Activity  Molality  Activity     Gamma   cm³/mol

   OH-             1.560e-07   1.233e-07    -6.807    -6.909    -0.102     -3.82
   H+              9.747e-08   8.201e-08    -7.011    -7.086    -0.075      0.00
   H2O             5.551e+01   9.993e-01     1.744    -0.000     0.000     18.07
Ca            2.612e-02
   Ca+2            1.691e-02   7.370e-03    -1.772    -2.133    -0.361    -17.54
   CaSO4           9.210e-03   9.355e-03    -2.036    -2.029     0.007      7.50
   CaOH+           1.854e-08   1.490e-08    -7.732    -7.827    -0.095     (0)  
   CaHSO4+         6.275e-09   5.043e-09    -8.202    -8.297    -0.095     (0)  
H(0)          2.348e-15
   H2              1.174e-15   1.192e-15   -14.930   -14.924     0.007     28.61
O(0)          0.000e+00
   O2              0.000e+00   0.000e+00   -62.540   -62.533     0.007     30.40
S(-2)         4.159e-23
   HS-             2.670e-23   2.110e-23   -22.574   -22.676    -0.102     20.82
   H2S             1.490e-23   1.513e-23   -22.827   -22.820     0.007     36.27
   S-2             7.315e-29   3.108e-29   -28.136   -28.508    -0.372     (0)  
   (H2S)2          0.000e+00   0.000e+00   -46.925   -46.918     0.007     30.09
S(6)          2.612e-02
   SO4-2           1.691e-02   7.138e-03    -1.772    -2.146    -0.374     22.80
   CaSO4           9.210e-03   9.355e-03    -2.036    -2.029     0.007      7.50
   HSO4-           7.082e-08   5.692e-08    -7.150    -7.245    -0.095     40.49
   CaHSO4+         6.275e-09   5.043e-09    -8.202    -8.297    -0.095     (0)  

------------------------------Saturation indices-------------------------------

  Phase               SI** log IAP   log K(298 K,   1 atm)

  Anhydrite        -0.00     -4.28   -4.28  CaSO4
  Gypsum            0.30     -4.28   -4.58  CaSO4:2H2O
  H2(g)           -11.82    -14.92   -3.10  H2
  H2O(g)           -1.50     -0.00    1.50  H2O
  H2S(g)          -21.83    -29.76   -7.94  H2S
  O2(g)           -59.64    -62.53   -2.89  O2
  Sulfur          -15.93    -11.05    4.88  S

**For a gas, SI = log10(fugacity). Fugacity = pressure * phi / 1 atm.
  For ideal gases, phi = 1.

Reaction step 8.

Using solution 1.	Supersaturated Ca-SO4 water
Using kinetics 1.	

Kinetics 1.	

	Time step: 10 seconds  (Incremented time: 30 seconds)

	Rate name       Delta Moles Total Moles   Reactant        Coefficient

	Gypsum            2.565e-05   2.200e-04   Gypsum                    1

-----------------------------Solution composition------------------------------

	Elements           Molality       Moles

	Ca                2.560e-02   1.280e-03
	S                 2.560e-02   1.280e-03

----------------------------Description of solution----------------------------

                                       pH  =   7.085      Charge balance
                                       pe  =  -1.513      Adjusted to redox equilibrium
      Specific Conductance (µS/cm,  25°C)  = 3890
                          Density (g/cm³)  =   1.00037
                               Volume (L)  =   0.05015
                        Viscosity (mPa s)  =   0.90232
                        Activity of water  =   0.999
                 Ionic strength (mol/kgw)  =   6.646e-02
                       Mass of water (kg)  =   4.999e-02
                 Total alkalinity (eq/kg)  =   2.002e-16
                         Temperature (°C)  =  25.00
                  Electrical balance (eq)  =   1.230e-12
 Percent error, 100*(Cat-|An|)/(Cat+|An|)  =   0.00
                               Iterations  =  56 (127 overall)
                                  Total H  = 5.549742e+00
                                  Total O  = 2.779991e+00

----------------------------Distribution of species----------------------------

                                               Log       Log       Log    mole V
   Species          Molality    Activity  Molality  Activity     Gamma   cm³/mol

   OH-             1.555e-07   1.231e-07    -6.808    -6.910    -0.101     -3.82
   H+              9.757e-08   8.217e-08    -7.011    -7.085    -0.075      0.00
   H2O             5.551e+01   9.993e-01     1.744    -0.000     0.000     18.07
Ca            2.560e-02
   Ca+2            1.662e-02   7.277e-03    -1.779    -2.138    -0.359    -17.55
   CaSO4           8.989e-03   9.127e-03    -2.046    -2.040     0.007      7.50
   CaOH+           1.825e-08   1.469e-08    -7.739    -7.833    -0.094     (0)  
   CaHSO4+         6.126e-09   4.930e-09    -8.213    -8.307    -0.094     (0)  
H(0)          9.992e-15
   H2              4.996e-15   5.073e-15   -14.301   -14.295     0.007     28.61
O(0)          0.000e+00
   O2              0.000e+00   0.000e+00   -63.798   -63.791     0.007     30.40
S(-2)         1.349e-20
   HS-             8.648e-21   6.847e-21   -20.063   -20.165    -0.101     20.82
   H2S             4.844e-21   4.919e-21   -20.315   -20.308     0.007     36.27
   S-2             2.356e-26   1.006e-26   -25.628   -25.997    -0.369     (0)  
   (H2S)2          0.000e+00   0.000e+00   -41.901   -41.894     0.007     30.09
S(6)          2.560e-02
   SO4-2           1.662e-02   7.053e-03    -1.779    -2.152    -0.372     22.74
   CaSO4           8.989e-03   9.127e-03    -2.046    -2.040     0.007      7.50
   HSO4-           7.002e-08   5.634e-08    -7.155    -7.249    -0.094     40.48
   CaHSO4+         6.126e-09   4.930e-09    -8.213    -8.307    -0.094     (0)  

------------------------------Saturation indices-------------------------------

  Phase               SI** log IAP   log K(298 K,   1 atm)

  Anhydrite        -0.01     -4.29   -4.28  CaSO4
  Gypsum            0.29     -4.29   -4.58  CaSO4:2H2O
  H2(g)           -11.19    -14.29   -3.10  H2
  H2O(g)           -1.50     -0.00    1.50  H2O
  H2S(g)          -19.31    -27.25   -7.94  H2S
  O2(g)           -60.90    -63.79   -2.89  O2
  Sulfur          -14.05     -9.16    4.88  S

**For a gas, SI = log10(fugacity). Fugacity = pressure * phi / 1 atm.
  For ideal gases, phi = 1.

Reaction step 9.

Using solution 1.	Supersaturated Ca-SO4 water
Using kinetics 1.	

Kinetics 1.	

	Time step: 20 seconds  (Incremented time: 50 seconds)

	Rate name       Delta Moles Total Moles   Reactant        Coefficient

	Gypsum            3.138e-05   2.514e-04   Gypsum                    1

-----------------------------Solution composition------------------------------

	Elements           Molality       Moles

	Ca                2.498e-02   1.249e-03
	S                 2.498e-02   1.249e-03

----------------------------Description of solution----------------------------

                                       pH  =   7.084      Charge balance
                                       pe  =  -1.723      Adjusted to redox equilibrium
      Specific Conductance (µS/cm,  25°C)  = 3810
                          Density (g/cm³)  =   1.00029
                               Volume (L)  =   0.05015
                        Viscosity (mPa s)  =   0.90211
                        Activity of water  =   0.999
                 Ionic strength (mol/kgw)  =   6.503e-02
                       Mass of water (kg)  =   4.999e-02
                 Total alkalinity (eq/kg)  =   2.049e-16
                         Temperature (°C)  =  25.00
                  Electrical balance (eq)  =   1.232e-12
 Percent error, 100*(Cat-|An|)/(Cat+|An|)  =   0.00
                               Iterations  =  46 (113 overall)
                                  Total H  = 5.549616e+00
                                  Total O  = 2.779802e+00

----------------------------Distribution of species----------------------------

                                               Log       Log       Log    mole V
   Species          Molality    Activity  Molality  Activity     Gamma   cm³/mol

   OH-             1.548e-07   1.228e-07    -6.810    -6.911    -0.101     -3.83
   H+              9.771e-08   8.237e-08    -7.010    -7.084    -0.074      0.00
   H2O             5.551e+01   9.993e-01     1.744    -0.000     0.000     18.07
Ca            2.498e-02
   Ca+2            1.626e-02   7.164e-03    -1.789    -2.145    -0.356    -17.55
   CaSO4           8.718e-03   8.850e-03    -2.060    -2.053     0.007      7.50
   CaOH+           1.790e-08   1.442e-08    -7.747    -7.841    -0.094     (0)  
   CaHSO4+         5.945e-09   4.792e-09    -8.226    -8.320    -0.094     (0)  
H(0)          2.638e-14
   H2              1.319e-14   1.339e-14   -13.880   -13.873     0.007     28.61
O(0)          0.000e+00
   O2              0.000e+00   0.000e+00   -64.641   -64.634     0.007     30.40
S(-2)         6.464e-19
   HS-             4.136e-19   3.281e-19   -18.383   -18.484    -0.101     20.81
   H2S             2.328e-19   2.363e-19   -18.633   -18.627     0.007     36.27
   S-2             1.119e-24   4.811e-25   -23.951   -24.318    -0.367     (0)  
   (H2S)2          2.899e-39   2.943e-39   -38.538   -38.531     0.007     30.09
S(6)          2.498e-02
   SO4-2           1.626e-02   6.947e-03    -1.789    -2.158    -0.369     22.66
   CaSO4           8.718e-03   8.850e-03    -2.060    -2.053     0.007      7.50
   HSO4-           6.903e-08   5.564e-08    -7.161    -7.255    -0.094     40.48
   CaHSO4+         5.945e-09   4.792e-09    -8.226    -8.320    -0.094     (0)  

------------------------------Saturation indices-------------------------------

  Phase               SI** log IAP   log K(298 K,   1 atm)

  Anhydrite        -0.03     -4.30   -4.28  CaSO4
  Gypsum            0.28     -4.30   -4.58  CaSO4:2H2O
  H2(g)           -10.77    -13.87   -3.10  H2
  H2O(g)           -1.50     -0.00    1.50  H2O
  H2S(g)          -17.63    -25.57   -7.94  H2S
  O2(g)           -61.74    -64.63   -2.89  O2
  Sulfur          -12.79     -7.90    4.88  S

**For a gas, SI = log10(fugacity). Fugacity = pressure * phi / 1 atm.
  For ideal gases, phi = 1.

Reaction step 10.

Using solution 1.	Supersaturated Ca-SO4 water
Using kinetics 1.	

Kinetics 1.	

	Time step: 30 seconds  (Incremented time: 80 seconds)

	Rate name       Delta Moles Total Moles   Reactant        Coefficient

	Gypsum            2.764e-05   2.790e-04   Gypsum                    1

-----------------------------Solution composition------------------------------

	Elements           Molality       Moles

	Ca                2.442e-02   1.221e-03
	S                 2.442e-02   1.221e-03

----------------------------Description of solution----------------------------

                                       pH  =   7.083      Charge balance
                                       pe  =  -1.498      Adjusted to redox equilibrium
      Specific Conductance (µS/cm,  25°C)  = 3738
                          Density (g/cm³)  =   1.00022
                               Volume (L)  =   0.05015
                        Viscosity (mPa s)  =   0.90192
                        Activity of water  =   0.999
                 Ionic strength (mol/kgw)  =   6.377e-02
                       Mass of water (kg)  =   4.999e-02
                 Total alkalinity (eq/kg)  =   2.009e-16
                         Temperature (°C)  =  25.00
                  Electrical balance (eq)  =   1.232e-12
 Percent error, 100*(Cat-|An|)/(Cat+|An|)  =   0.00
                               Iterations  =  40 (101 overall)
                                  Total H  = 5.549506e+00
                                  Total O  = 2.779637e+00

----------------------------Distribution of species----------------------------

                                               Log       Log       Log    mole V
   Species          Molality    Activity  Molality  Activity     Gamma   cm³/mol

   OH-             1.542e-07   1.225e-07    -6.812    -6.912    -0.100     -3.83
   H+              9.783e-08   8.255e-08    -7.010    -7.083    -0.074      0.00
   H2O             5.551e+01   9.993e-01     1.744    -0.000     0.000     18.07
Ca            2.442e-02
   Ca+2            1.594e-02   7.062e-03    -1.797    -2.151    -0.354    -17.56
   CaSO4           8.481e-03   8.606e-03    -2.072    -2.065     0.006      7.50
   CaOH+           1.758e-08   1.419e-08    -7.755    -7.848    -0.093     (0)  
   CaHSO4+         5.786e-09   4.670e-09    -8.238    -8.331    -0.093     (0)  
H(0)          9.428e-15
   H2              4.714e-15   4.784e-15   -14.327   -14.320     0.006     28.61
O(0)          0.000e+00
   O2              0.000e+00   0.000e+00   -63.747   -63.740     0.006     30.40
S(-2)         1.041e-20
   HS-             6.648e-21   5.283e-21   -20.177   -20.277    -0.100     20.81
   H2S             3.758e-21   3.813e-21   -20.425   -20.419     0.006     36.27
   S-2             1.788e-26   7.729e-27   -25.748   -26.112    -0.364     (0)  
   (H2S)2          0.000e+00   0.000e+00   -42.122   -42.116     0.006     30.09
S(6)          2.442e-02
   SO4-2           1.594e-02   6.853e-03    -1.797    -2.164    -0.367     22.58
   CaSO4           8.481e-03   8.606e-03    -2.072    -2.065     0.006      7.50
   HSO4-           6.815e-08   5.500e-08    -7.167    -7.260    -0.093     40.48
   CaHSO4+         5.786e-09   4.670e-09    -8.238    -8.331    -0.093     (0)  

------------------------------Saturation indices-------------------------------

  Phase               SI** log IAP   log K(298 K,   1 atm)

  Anhydrite        -0.04     -4.32   -4.28  CaSO4
  Gypsum            0.27     -4.32   -4.58  CaSO4:2H2O
  H2(g)           -11.22    -14.32   -3.10  H2
  H2O(g)           -1.50     -0.00    1.50  H2O
  H2S(g)          -19.42    -27.36   -7.94  H2S
  O2(g)           -60.85    -63.74   -2.89  O2
  Sulfur          -14.13     -9.25    4.88  S

**For a gas, SI = log10(fugacity). Fugacity = pressure * phi / 1 atm.
  For ideal gases, phi = 1.

Reaction step 11.

Using solution 1.	Supersaturated Ca-SO4 water
Using kinetics 1.	

Kinetics 1.	

	Time step: 20 seconds  (Incremented time: 100 seconds)

	Rate name       Delta Moles Total Moles   Reactant        Coefficient

	Gypsum            1.266e-05   2.917e-04   Gypsum                    1

-----------------------------Solution composition------------------------------

	Elements           Molality       Moles

	Ca                2.417e-02   1.208e-03
	S                 2.417e-02   1.208e-03

----------------------------Description of solution----------------------------

                                       pH  =   7.083      Charge balance
                                       pe  =  10.911      Adjusted to redox equilibrium
      Specific Conductance (µS/cm,  25°C)  = 3706
                          Density (g/cm³)  =   1.00018
                               Volume (L)  =   0.05014
                        Viscosity (mPa s)  =   0.90184
                        Activity of water  =   0.999
                 Ionic strength (mol/kgw)  =   6.319e-02
                       Mass of water (kg)  =   4.999e-02
                 Total alkalinity (eq/kg)  =   2.058e-16
                         Temperature (°C)  =  25.00
                  Electrical balance (eq)  =   1.232e-12
 Percent error, 100*(Cat-|An|)/(Cat+|An|)  =   0.00
                               Iterations  =  79 (153 overall)
                                  Total H  = 5.549455e+00
                                  Total O  = 2.779561e+00

----------------------------Distribution of species----------------------------

                                               Log       Log       Log    mole V
   Species          Molality    Activity  Molality  Activity     Gamma   cm³/mol

   OH-             1.539e-07   1.224e-07    -6.813    -6.912    -0.099     -3.83
   H+              9.789e-08   8.264e-08    -7.009    -7.083    -0.074      0.00
   H2O             5.551e+01   9.993e-01     1.744    -0.000     0.000     18.07
Ca            2.417e-02
   Ca+2            1.580e-02   7.016e-03    -1.801    -2.154    -0.353    -17.56
   CaSO4           8.372e-03   8.495e-03    -2.077    -2.071     0.006      7.50
   CaOH+           1.743e-08   1.408e-08    -7.759    -7.851    -0.093     (0)  
   CaHSO4+         5.714e-09   4.614e-09    -8.243    -8.336    -0.093     (0)  
H(0)          1.435e-39
   H2              7.177e-40   7.282e-40   -39.144   -39.138     0.006     28.61
O(0)          1.548e-14
   O2              7.738e-15   7.851e-15   -14.111   -14.105     0.006     30.40
S(-2)         0.000e+00
   HS-             0.000e+00   0.000e+00  -119.450  -119.550    -0.099     20.81
   H2S             0.000e+00   0.000e+00  -119.697  -119.691     0.006     36.27
   S-2             0.000e+00   0.000e+00  -125.022  -125.385    -0.363     (0)  
   (H2S)2          0.000e+00   0.000e+00  -240.666  -240.660     0.006     30.09
S(6)          2.417e-02
   SO4-2           1.580e-02   6.809e-03    -1.801    -2.167    -0.366     22.55
   CaSO4           8.372e-03   8.495e-03    -2.077    -2.071     0.006      7.50
   HSO4-           6.774e-08   5.471e-08    -7.169    -7.262    -0.093     40.48
   CaHSO4+         5.714e-09   4.614e-09    -8.243    -8.336    -0.093     (0)  

------------------------------Saturation indices-------------------------------

  Phase               SI** log IAP   log K(298 K,   1 atm)

  Anhydrite        -0.04     -4.32   -4.28  CaSO4
  Gypsum            0.26     -4.32   -4.58  CaSO4:2H2O
  H2(g)           -36.04    -39.14   -3.10  H2
  H2O(g)           -1.50     -0.00    1.50  H2O
  H2S(g)         -118.70   -126.63   -7.94  H2S
  O2(g)           -11.21    -14.11   -2.89  O2
  Sulfur          -88.58    -83.70    4.88  S

**For a gas, SI = log10(fugacity). Fugacity = pressure * phi / 1 atm.
  For ideal gases, phi = 1.

Reaction step 12.

Using solution 1.	Supersaturated Ca-SO4 water
Using kinetics 1.	

Kinetics 1.	

	Time step: 100 seconds  (Incremented time: 200 seconds)

	Rate name       Delta Moles Total Moles   Reactant        Coefficient

	Gypsum            3.731e-05   3.290e-04   Gypsum                    1

-----------------------------Solution composition------------------------------

	Elements           Molality       Moles

	Ca                2.343e-02   1.171e-03
	S                 2.343e-02   1.171e-03

----------------------------Description of solution----------------------------

                                       pH  =   7.082      Charge balance
                                       pe  =  10.927      Adjusted to redox equilibrium
      Specific Conductance (µS/cm,  25°C)  = 3609
                          Density (g/cm³)  =   1.00009
                               Volume (L)  =   0.05014
                        Viscosity (mPa s)  =   0.90159
                        Activity of water  =   0.999
                 Ionic strength (mol/kgw)  =   6.149e-02
                       Mass of water (kg)  =   4.999e-02
                 Total alkalinity (eq/kg)  =   2.004e-16
                         Temperature (°C)  =  25.00
                  Electrical balance (eq)  =   1.236e-12
 Percent error, 100*(Cat-|An|)/(Cat+|An|)  =   0.00
                               Iterations  =  52 (125 overall)
                                  Total H  = 5.549306e+00
                                  Total O  = 2.779337e+00

----------------------------Distribution of species----------------------------

                                               Log       Log       Log    mole V
   Species          Molality    Activity  Molality  Activity     Gamma   cm³/mol

   OH-             1.531e-07   1.220e-07    -6.815    -6.914    -0.098     -3.84
   H+              9.805e-08   8.289e-08    -7.009    -7.082    -0.073      0.00
   H2O             5.551e+01   9.993e-01     1.744    -0.000     0.000     18.07
Ca            2.343e-02
   Ca+2            1.537e-02   6.877e-03    -1.813    -2.163    -0.349    -17.57
   CaSO4           8.054e-03   8.169e-03    -2.094    -2.088     0.006      7.50
   CaOH+           1.700e-08   1.376e-08    -7.769    -7.861    -0.092     (0)  
   CaHSO4+         5.500e-09   4.451e-09    -8.260    -8.352    -0.092     (0)  
H(0)          1.344e-39
   H2              6.720e-40   6.816e-40   -39.173   -39.166     0.006     28.61
O(0)          1.767e-14
   O2              8.835e-15   8.961e-15   -14.054   -14.048     0.006     30.40
S(-2)         0.000e+00
   HS-             0.000e+00   0.000e+00  -119.573  -119.671    -0.098     20.81
   H2S             0.000e+00   0.000e+00  -119.817  -119.811     0.006     36.27
   S-2             0.000e+00   0.000e+00  -125.149  -125.508    -0.359     (0)  
   (H2S)2          0.000e+00   0.000e+00  -240.907  -240.901     0.006     30.09
S(6)          2.343e-02
   SO4-2           1.537e-02   6.680e-03    -1.813    -2.175    -0.362     22.45
   CaSO4           8.054e-03   8.169e-03    -2.094    -2.088     0.006      7.50
   HSO4-           6.652e-08   5.383e-08    -7.177    -7.269    -0.092     40.48
   CaHSO4+         5.500e-09   4.451e-09    -8.260    -8.352    -0.092     (0)  

------------------------------Saturation indices-------------------------------

  Phase               SI** log IAP   log K(298 K,   1 atm)

  Anhydrite        -0.06     -4.34   -4.28  CaSO4
  Gypsum            0.24     -4.34   -4.58  CaSO4:2H2O
  H2(g)           -36.07    -39.17   -3.10  H2
  H2O(g)           -1.50     -0.00    1.50  H2O
  H2S(g)         -118.82   -126.75   -7.94  H2S
  O2(g)           -11.16    -14.05   -2.89  O2
  Sulfur          -88.68    -83.79    4.88  S

**For a gas, SI = log10(fugacity). Fugacity = pressure * phi / 1 atm.
  For ideal gases, phi = 1.

Reaction step 13.

Using solution 1.	Supersaturated Ca-SO4 water
Using kinetics 1.	

Kinetics 1.	

	Time step: 100 seconds  (Incremented time: 300 seconds)

	Rate name       Delta Moles Total Moles   Reactant        Coefficient

	Gypsum            2.045e-05   3.495e-04   Gypsum                    1

-----------------------------Solution composition------------------------------

	Elements           Molality       Moles

	Ca                2.302e-02   1.151e-03
	S                 2.302e-02   1.151e-03

----------------------------Description of solution----------------------------

                                       pH  =   7.081      Charge balance
                                       pe  =  10.930      Adjusted to redox equilibrium
      Specific Conductance (µS/cm,  25°C)  = 3556
                          Density (g/cm³)  =   1.00004
                               Volume (L)  =   0.05014
                        Viscosity (mPa s)  =   0.90145
                        Activity of water  =   0.999
                 Ionic strength (mol/kgw)  =   6.055e-02
                       Mass of water (kg)  =   4.999e-02
                 Total alkalinity (eq/kg)  =   1.955e-16
                         Temperature (°C)  =  25.00
                  Electrical balance (eq)  =   1.236e-12
 Percent error, 100*(Cat-|An|)/(Cat+|An|)  =   0.00
                               Iterations  =  37 (92 overall)
                                  Total H  = 5.549224e+00
                                  Total O  = 2.779214e+00

----------------------------Distribution of species----------------------------

                                               Log       Log       Log    mole V
   Species          Molality    Activity  Molality  Activity     Gamma   cm³/mol

   OH-             1.526e-07   1.218e-07    -6.816    -6.914    -0.098     -3.84
   H+              9.814e-08   8.303e-08    -7.008    -7.081    -0.073      0.00
   H2O             5.551e+01   9.994e-01     1.744    -0.000     0.000     18.07
Ca            2.302e-02
   Ca+2            1.514e-02   6.800e-03    -1.820    -2.167    -0.348    -17.57
   CaSO4           7.880e-03   7.991e-03    -2.103    -2.097     0.006      7.50
   CaOH+           1.677e-08   1.358e-08    -7.776    -7.867    -0.091     (0)  
   CaHSO4+         5.383e-09   4.361e-09    -8.269    -8.360    -0.091     (0)  
H(0)          1.328e-39
   H2              6.638e-40   6.731e-40   -39.178   -39.172     0.006     28.61
O(0)          1.812e-14
   O2              9.061e-15   9.188e-15   -14.043   -14.037     0.006     30.40
S(-2)         0.000e+00
   HS-             0.000e+00   0.000e+00  -119.599  -119.697    -0.098     20.81
   H2S             0.000e+00   0.000e+00  -119.842  -119.836     0.006     36.27
   S-2             0.000e+00   0.000e+00  -125.177  -125.534    -0.358     (0)  
   (H2S)2          0.000e+00   0.000e+00  -240.957  -240.951     0.006     30.09
S(6)          2.302e-02
   SO4-2           1.514e-02   6.608e-03    -1.820    -2.180    -0.360     22.39
   CaSO4           7.880e-03   7.991e-03    -2.103    -2.097     0.006      7.50
   HSO4-           6.585e-08   5.334e-08    -7.181    -7.273    -0.091     40.47
   CaHSO4+         5.383e-09   4.361e-09    -8.269    -8.360    -0.091     (0)  

------------------------------Saturation indices-------------------------------

  Phase               SI** log IAP   log K(298 K,   1 atm)

  Anhydrite        -0.07     -4.35   -4.28  CaSO4
  Gypsum            0.23     -4.35   -4.58  CaSO4:2H2O
  H2(g)           -36.07    -39.17   -3.10  H2
  H2O(g)           -1.50     -0.00    1.50  H2O
  H2S(g)         -118.84   -126.78   -7.94  H2S
  O2(g)           -11.14    -14.04   -2.89  O2
  Sulfur          -88.70    -83.81    4.88  S

**For a gas, SI = log10(fugacity). Fugacity = pressure * phi / 1 atm.
  For ideal gases, phi = 1.

Reaction step 14.

Using solution 1.	Supersaturated Ca-SO4 water
Using kinetics 1.	

Kinetics 1.	

	Time step: 200 seconds  (Incremented time: 500 seconds)

	Rate name       Delta Moles Total Moles   Reactant        Coefficient

	Gypsum            2.433e-05   3.738e-04   Gypsum                    1

-----------------------------Solution composition------------------------------

	Elements           Molality       Moles

	Ca                2.253e-02   1.126e-03
	S                 2.253e-02   1.126e-03

----------------------------Description of solution----------------------------

                                       pH  =   7.080      Charge balance
                                       pe  =  10.885      Adjusted to redox equilibrium
      Specific Conductance (µS/cm,  25°C)  = 3493
                          Density (g/cm³)  =   0.99997
                               Volume (L)  =   0.05014
                        Viscosity (mPa s)  =   0.90128
                        Activity of water  =   0.999
                 Ionic strength (mol/kgw)  =   5.942e-02
                       Mass of water (kg)  =   4.999e-02
                 Total alkalinity (eq/kg)  =   2.045e-16
                         Temperature (°C)  =  25.00
                  Electrical balance (eq)  =   1.237e-12
 Percent error, 100*(Cat-|An|)/(Cat+|An|)  =   0.00
                               Iterations  =  43 (104 overall)
                                  Total H  = 5.549127e+00
                                  Total O  = 2.779068e+00

----------------------------Distribution of species----------------------------

                                               Log       Log       Log    mole V
   Species          Molality    Activity  Molality  Activity     Gamma   cm³/mol

   OH-             1.520e-07   1.216e-07    -6.818    -6.915    -0.097     -3.84
   H+              9.826e-08   8.320e-08    -7.008    -7.080    -0.072      0.00
   H2O             5.551e+01   9.994e-01     1.744    -0.000     0.000     18.07
Ca            2.253e-02
   Ca+2            1.486e-02   6.708e-03    -1.828    -2.173    -0.345    -17.58
   CaSO4           7.674e-03   7.780e-03    -2.115    -2.109     0.006      7.50
   CaOH+           1.648e-08   1.337e-08    -7.783    -7.874    -0.091     (0)  
   CaHSO4+         5.245e-09   4.254e-09    -8.280    -8.371    -0.091     (0)  
H(0)          1.640e-39
   H2              8.201e-40   8.314e-40   -39.086   -39.080     0.006     28.61
O(0)          1.188e-14
   O2              5.941e-15   6.023e-15   -14.226   -14.220     0.006     30.40
S(-2)         0.000e+00
   HS-             0.000e+00   0.000e+00  -119.238  -119.335    -0.097     20.80
   H2S             0.000e+00   0.000e+00  -119.479  -119.473     0.006     36.27
   S-2             0.000e+00   0.000e+00  -124.818  -125.173    -0.355     (0)  
   (H2S)2          0.000e+00   0.000e+00  -240.231  -240.225     0.006     30.09
S(6)          2.253e-02
   SO4-2           1.486e-02   6.522e-03    -1.828    -2.186    -0.358     22.32
   CaSO4           7.674e-03   7.780e-03    -2.115    -2.109     0.006      7.50
   HSO4-           6.503e-08   5.276e-08    -7.187    -7.278    -0.091     40.47
   CaHSO4+         5.245e-09   4.254e-09    -8.280    -8.371    -0.091     (0)  

------------------------------Saturation indices-------------------------------

  Phase               SI** log IAP   log K(298 K,   1 atm)

  Anhydrite        -0.08     -4.36   -4.28  CaSO4
  Gypsum            0.22     -4.36   -4.58  CaSO4:2H2O
  H2(g)           -35.98    -39.08   -3.10  H2
  H2O(g)           -1.50     -0.00    1.50  H2O
  H2S(g)         -118.48   -126.41   -7.94  H2S
  O2(g)           -11.33    -14.22   -2.89  O2
  Sulfur          -88.43    -83.54    4.88  S

**For a gas, SI = log10(fugacity). Fugacity = pressure * phi / 1 atm.
  For ideal gases, phi = 1.

Reaction step 15.

Using solution 1.	Supersaturated Ca-SO4 water
Using kinetics 1.	

Kinetics 1.	

	Time step: 300 seconds  (Incremented time: 800 seconds)

	Rate name       Delta Moles Total Moles   Reactant        Coefficient

	Gypsum            2.107e-05   3.949e-04   Gypsum                    1

-----------------------------Solution composition------------------------------

	Elements           Molality       Moles

	Ca                2.211e-02   1.105e-03
	S                 2.211e-02   1.105e-03

----------------------------Description of solution----------------------------

                                       pH  =   7.079      Charge balance
                                       pe  =  10.799      Adjusted to redox equilibrium
      Specific Conductance (µS/cm,  25°C)  = 3438
                          Density (g/cm³)  =   0.99992
                               Volume (L)  =   0.05014
                        Viscosity (mPa s)  =   0.90113
                        Activity of water  =   0.999
                 Ionic strength (mol/kgw)  =   5.845e-02
                       Mass of water (kg)  =   4.999e-02
                 Total alkalinity (eq/kg)  =   2.103e-16
                         Temperature (°C)  =  25.00
                  Electrical balance (eq)  =   1.237e-12
 Percent error, 100*(Cat-|An|)/(Cat+|An|)  =   0.00
                               Iterations  =  37 (92 overall)
                                  Total H  = 5.549042e+00
                                  Total O  = 2.778942e+00

----------------------------Distribution of species----------------------------

                                               Log       Log       Log    mole V
   Species          Molality    Activity  Molality  Activity     Gamma   cm³/mol

   OH-             1.516e-07   1.214e-07    -6.819    -6.916    -0.096     -3.85
   H+              9.835e-08   8.334e-08    -7.007    -7.079    -0.072      0.00
   H2O             5.551e+01   9.994e-01     1.744    -0.000     0.000     18.07
Ca            2.211e-02
   Ca+2            1.461e-02   6.627e-03    -1.835    -2.179    -0.343    -17.58
   CaSO4           7.496e-03   7.598e-03    -2.125    -2.119     0.006      7.50
   CaOH+           1.624e-08   1.319e-08    -7.789    -7.880    -0.090     (0)  
   CaHSO4+         5.125e-09   4.162e-09    -8.290    -8.381    -0.090     (0)  
H(0)          2.448e-39
   H2              1.224e-39   1.240e-39   -38.912   -38.906     0.006     28.61
O(0)          5.339e-15
   O2              2.670e-15   2.706e-15   -14.574   -14.568     0.006     30.40
S(-2)         0.000e+00
   HS-             0.000e+00   0.000e+00  -118.548  -118.644    -0.096     20.80
   H2S             0.000e+00   0.000e+00  -118.788  -118.782     0.006     36.27
   S-2             0.000e+00   0.000e+00  -124.130  -124.483    -0.353     (0)  
   (H2S)2          0.000e+00   0.000e+00  -238.848  -238.842     0.006     30.09
S(6)          2.211e-02
   SO4-2           1.461e-02   6.447e-03    -1.835    -2.191    -0.355     22.26
   CaSO4           7.496e-03   7.598e-03    -2.125    -2.119     0.006      7.50
   HSO4-           6.432e-08   5.224e-08    -7.192    -7.282    -0.090     40.47
   CaHSO4+         5.125e-09   4.162e-09    -8.290    -8.381    -0.090     (0)  

------------------------------Saturation indices-------------------------------

  Phase               SI** log IAP   log K(298 K,   1 atm)

  Anhydrite        -0.09     -4.37   -4.28  CaSO4
  Gypsum            0.21     -4.37   -4.58  CaSO4:2H2O
  H2(g)           -35.81    -38.91   -3.10  H2
  H2O(g)           -1.50     -0.00    1.50  H2O
  H2S(g)         -117.79   -125.72   -7.94  H2S
  O2(g)           -11.68    -14.57   -2.89  O2
  Sulfur          -87.91    -83.03    4.88  S

**For a gas, SI = log10(fugacity). Fugacity = pressure * phi / 1 atm.
  For ideal gases, phi = 1.

Reaction step 16.

Using solution 1.	Supersaturated Ca-SO4 water
Using kinetics 1.	

Kinetics 1.	

	Time step: 200 seconds  (Incremented time: 1000 seconds)

	Rate name       Delta Moles Total Moles   Reactant        Coefficient

	Gypsum            9.476e-06   4.043e-04   Gypsum                    1

-----------------------------Solution composition------------------------------

	Elements           Molality       Moles

	Ca                2.192e-02   1.096e-03
	S                 2.192e-02   1.096e-03

----------------------------Description of solution----------------------------

                                       pH  =   7.079      Charge balance
                                       pe  =  10.746      Adjusted to redox equilibrium
      Specific Conductance (µS/cm,  25°C)  = 3413
                          Density (g/cm³)  =   0.99990
                               Volume (L)  =   0.05014
                        Viscosity (mPa s)  =   0.90107
                        Activity of water  =   0.999
                 Ionic strength (mol/kgw)  =   5.801e-02
                       Mass of water (kg)  =   4.999e-02
                 Total alkalinity (eq/kg)  =   1.957e-16
                         Temperature (°C)  =  25.00
                  Electrical balance (eq)  =   1.683e-14
 Percent error, 100*(Cat-|An|)/(Cat+|An|)  =   0.00
                               Iterations  =  21 (59 overall)
                                  Total H  = 5.549004e+00
                                  Total O  = 2.778885e+00

----------------------------Distribution of species----------------------------

                                               Log       Log       Log    mole V
   Species          Molality    Activity  Molality  Activity     Gamma   cm³/mol

   OH-             1.513e-07   1.213e-07    -6.820    -6.916    -0.096     -3.85
   H+              9.840e-08   8.341e-08    -7.007    -7.079    -0.072      0.00
   H2O             5.551e+01   9.994e-01     1.744    -0.000     0.000     18.07
Ca            2.192e-02
   Ca+2            1.450e-02   6.591e-03    -1.839    -2.181    -0.343    -17.58
   CaSO4           7.416e-03   7.516e-03    -2.130    -2.124     0.006      7.50
   CaOH+           1.613e-08   1.311e-08    -7.792    -7.883    -0.090     (0)  
   CaHSO4+         5.071e-09   4.121e-09    -8.295    -8.385    -0.090     (0)  
H(0)          3.126e-39
   H2              1.563e-39   1.584e-39   -38.806   -38.800     0.006     28.61
O(0)          3.274e-15
   O2              1.637e-15   1.659e-15   -14.786   -14.780     0.006     30.40
S(-2)         0.000e+00
   HS-             0.000e+00   0.000e+00  -118.125  -118.221    -0.096     20.80
   H2S             0.000e+00   0.000e+00  -118.364  -118.358     0.006     36.27
   S-2             0.000e+00   0.000e+00  -123.708  -124.061    -0.352     (0)  
   (H2S)2          0.000e+00   0.000e+00  -238.001  -237.995     0.006     30.09
S(6)          2.192e-02
   SO4-2           1.450e-02   6.413e-03    -1.839    -2.193    -0.354     22.23
   CaSO4           7.416e-03   7.516e-03    -2.130    -2.124     0.006      7.50
   HSO4-           6.400e-08   5.201e-08    -7.194    -7.284    -0.090     40.47
   CaHSO4+         5.071e-09   4.121e-09    -8.295    -8.385    -0.090     (0)  

------------------------------Saturation indices-------------------------------

  Phase               SI** log IAP   log K(298 K,   1 atm)

  Anhydrite        -0.10     -4.37   -4.28  CaSO4
  Gypsum            0.21     -4.37   -4.58  CaSO4:2H2O
  H2(g)           -35.70    -38.80   -3.10  H2
  H2O(g)           -1.50     -0.00    1.50  H2O
  H2S(g)         -117.36   -125.30   -7.94  H2S
  O2(g)           -11.89    -14.78   -2.89  O2
  Sulfur          -87.59    -82.71    4.88  S

**For a gas, SI = log10(fugacity). Fugacity = pressure * phi / 1 atm.
  For ideal gases, phi = 1.

Reaction step 17.

Using solution 1.	Supersaturated Ca-SO4 water
Using kinetics 1.	

Kinetics 1.	

	Time step: 1000 seconds  (Incremented time: 2000 seconds)

	Rate name       Delta Moles Total Moles   Reactant        Coefficient

	Gypsum            2.818e-05   4.325e-04   Gypsum                    1

-----------------------------Solution composition------------------------------

	Elements           Molality       Moles

	Ca                2.136e-02   1.067e-03
	S                 2.136e-02   1.067e-03

----------------------------Description of solution----------------------------

                                       pH  =   7.078      Charge balance
                                       pe  =  -1.744      Adjusted to redox equilibrium
      Specific Conductance (µS/cm,  25°C)  = 3339
                          Density (g/cm³)  =   0.99982
                               Volume (L)  =   0.05014
                        Viscosity (mPa s)  =   0.90087
                        Activity of water  =   0.999
                 Ionic strength (mol/kgw)  =   5.671e-02
                       Mass of water (kg)  =   4.998e-02
                 Total alkalinity (eq/kg)  =   1.964e-16
                         Temperature (°C)  =  25.00
                  Electrical balance (eq)  =   1.673e-14
 Percent error, 100*(Cat-|An|)/(Cat+|An|)  =   0.00
                               Iterations  = 262 (609 overall)
                                  Total H  = 5.548892e+00
                                  Total O  = 2.778716e+00

----------------------------Distribution of species----------------------------

                                               Log       Log       Log    mole V
   Species          Molality    Activity  Molality  Activity     Gamma   cm³/mol

   OH-             1.507e-07   1.210e-07    -6.822    -6.917    -0.095     -3.85
   H+              9.853e-08   8.362e-08    -7.006    -7.078    -0.071      0.00
   H2O             5.551e+01   9.994e-01     1.744    -0.000     0.000     18.07
Ca            2.136e-02
   Ca+2            1.418e-02   6.482e-03    -1.848    -2.188    -0.340    -17.59
   CaSO4           7.180e-03   7.274e-03    -2.144    -2.138     0.006      7.50
   CaOH+           1.580e-08   1.286e-08    -7.801    -7.891    -0.089     (0)  
   CaHSO4+         4.912e-09   3.998e-09    -8.309    -8.398    -0.089     (0)  
H(0)          3.012e-14
   H2              1.506e-14   1.526e-14   -13.822   -13.817     0.006     28.61
O(0)          0.000e+00
   O2              0.000e+00   0.000e+00   -64.753   -64.747     0.006     30.40
S(-2)         1.003e-18
   HS-             6.348e-19   5.097e-19   -18.197   -18.293    -0.095     20.80
   H2S             3.678e-19   3.726e-19   -18.434   -18.429     0.006     36.27
   S-2             1.645e-24   7.362e-25   -23.784   -24.133    -0.349     (0)  
   (H2S)2          7.221e-39   7.316e-39   -38.141   -38.136     0.006     30.09
S(6)          2.136e-02
   SO4-2           1.418e-02   6.311e-03    -1.848    -2.200    -0.351     22.15
   CaSO4           7.180e-03   7.274e-03    -2.144    -2.138     0.006      7.50
   HSO4-           6.303e-08   5.130e-08    -7.200    -7.290    -0.089     40.47
   CaHSO4+         4.912e-09   3.998e-09    -8.309    -8.398    -0.089     (0)  

------------------------------Saturation indices-------------------------------

  Phase               SI** log IAP   log K(298 K,   1 atm)

  Anhydrite        -0.11     -4.39   -4.28  CaSO4
  Gypsum            0.19     -4.39   -4.58  CaSO4:2H2O
  H2(g)           -10.72    -13.82   -3.10  H2
  H2O(g)           -1.50     -0.00    1.50  H2O
  H2S(g)          -17.43    -25.37   -7.94  H2S
  O2(g)           -61.86    -64.75   -2.89  O2
  Sulfur          -12.64     -7.76    4.88  S

**For a gas, SI = log10(fugacity). Fugacity = pressure * phi / 1 atm.
  For ideal gases, phi = 1.

Reaction step 18.

Using solution 1.	Supersaturated Ca-SO4 water
Using kinetics 1.	

Kinetics 1.	

	Time step: 1000 seconds  (Incremented time: 3000 seconds)

	Rate name       Delta Moles Total Moles   Reactant        Coefficient

	Gypsum            1.545e-05   4.480e-04   Gypsum                    1

-----------------------------Solution composition------------------------------

	Elements           Molality       Moles

	Ca                2.105e-02   1.052e-03
	S                 2.105e-02   1.052e-03

----------------------------Description of solution----------------------------

                                       pH  =   7.077      Charge balance
                                       pe  =  -1.775      Adjusted to redox equilibrium
      Specific Conductance (µS/cm,  25°C)  = 3298
                          Density (g/cm³)  =   0.99978
                               Volume (L)  =   0.05014
                        Viscosity (mPa s)  =   0.90076
                        Activity of water  =   0.999
                 Ionic strength (mol/kgw)  =   5.599e-02
                       Mass of water (kg)  =   4.998e-02
                 Total alkalinity (eq/kg)  =   1.957e-16
                         Temperature (°C)  =  25.00
                  Electrical balance (eq)  =   1.680e-14
 Percent error, 100*(Cat-|An|)/(Cat+|An|)  =   0.00
                               Iterations  =  31 (80 overall)
                                  Total H  = 5.548830e+00
                                  Total O  = 2.778623e+00

----------------------------Distribution of species----------------------------

                                               Log       Log       Log    mole V
   Species          Molality    Activity  Molality  Activity     Gamma   cm³/mol

   OH-             1.503e-07   1.208e-07    -6.823    -6.918    -0.095     -3.85
   H+              9.860e-08   8.373e-08    -7.006    -7.077    -0.071      0.00
   H2O             5.551e+01   9.994e-01     1.744    -0.000     0.000     18.07
Ca            2.105e-02
   Ca+2            1.400e-02   6.422e-03    -1.854    -2.192    -0.338    -17.59
   CaSO4           7.050e-03   7.142e-03    -2.152    -2.146     0.006      7.50
   CaOH+           1.561e-08   1.272e-08    -7.806    -7.895    -0.089     (0)  
   CaHSO4+         4.825e-09   3.931e-09    -8.317    -8.406    -0.089     (0)  
H(0)          3.479e-14
   H2              1.740e-14   1.762e-14   -13.760   -13.754     0.006     28.61
O(0)          0.000e+00
   O2              0.000e+00   0.000e+00   -64.878   -64.873     0.006     30.40
S(-2)         1.770e-18
   HS-             1.120e-18   9.001e-19   -17.951   -18.046    -0.095     20.80
   H2S             6.505e-19   6.589e-19   -18.187   -18.181     0.006     36.27
   S-2             2.891e-24   1.298e-24   -23.539   -23.887    -0.348     (0)  
   (H2S)2          2.259e-38   2.288e-38   -37.646   -37.641     0.006     30.09
S(6)          2.105e-02
   SO4-2           1.400e-02   6.254e-03    -1.854    -2.204    -0.350     22.11
   CaSO4           7.050e-03   7.142e-03    -2.152    -2.146     0.006      7.50
   HSO4-           6.250e-08   5.091e-08    -7.204    -7.293    -0.089     40.47
   CaHSO4+         4.825e-09   3.931e-09    -8.317    -8.406    -0.089     (0)  

------------------------------Saturation indices-------------------------------

  Phase               SI** log IAP   log K(298 K,   1 atm)

  Anhydrite        -0.12     -4.40   -4.28  CaSO4
  Gypsum            0.19     -4.40   -4.58  CaSO4:2H2O
  H2(g)           -10.65    -13.75   -3.10  H2
  H2O(g)           -1.50     -0.00    1.50  H2O
  H2S(g)          -17.19    -25.12   -7.94  H2S
  O2(g)           -61.98    -64.87   -2.89  O2
  Sulfur          -12.46     -7.58    4.88  S

**For a gas, SI = log10(fugacity). Fugacity = pressure * phi / 1 atm.
  For ideal gases, phi = 1.

Reaction step 19.

Using solution 1.	Supersaturated Ca-SO4 water
Using kinetics 1.	

Kinetics 1.	

	Time step: 2000 seconds  (Incremented time: 5000 seconds)

	Rate name       Delta Moles Total Moles   Reactant        Coefficient

	Gypsum            1.850e-05   4.665e-04   Gypsum                    1

-----------------------------Solution composition------------------------------

	Elements           Molality       Moles

	Ca                2.068e-02   1.034e-03
	S                 2.068e-02   1.034e-03

----------------------------Description of solution----------------------------

                                       pH  =   7.076      Charge balance
                                       pe  =  -1.647      Adjusted to redox equilibrium
      Specific Conductance (µS/cm,  25°C)  = 3249
                          Density (g/cm³)  =   0.99974
                               Volume (L)  =   0.05014
                        Viscosity (mPa s)  =   0.90063
                        Activity of water  =   0.999
                 Ionic strength (mol/kgw)  =   5.513e-02
                       Mass of water (kg)  =   4.998e-02
                 Total alkalinity (eq/kg)  =   2.063e-16
                         Temperature (°C)  =  25.00
                  Electrical balance (eq)  =   1.697e-14
 Percent error, 100*(Cat-|An|)/(Cat+|An|)  =   0.00
                               Iterations  =  39 (100 overall)
                                  Total H  = 5.548756e+00
                                  Total O  = 2.778512e+00

----------------------------Distribution of species----------------------------

                                               Log       Log       Log    mole V
   Species          Molality    Activity  Molality  Activity     Gamma   cm³/mol

   OH-             1.499e-07   1.206e-07    -6.824    -6.919    -0.094     -3.86
   H+              9.869e-08   8.387e-08    -7.006    -7.076    -0.071      0.00
   H2O             5.551e+01   9.994e-01     1.744    -0.000     0.000     18.07
Ca            2.068e-02
   Ca+2            1.378e-02   6.349e-03    -1.861    -2.197    -0.337    -17.60
   CaSO4           6.896e-03   6.984e-03    -2.161    -2.156     0.006      7.50
   CaOH+           1.540e-08   1.256e-08    -7.813    -7.901    -0.089     (0)  
   CaHSO4+         4.721e-09   3.850e-09    -8.326    -8.415    -0.089     (0)  
H(0)          1.939e-14
   H2              9.696e-15   9.820e-15   -14.013   -14.008     0.006     28.61
O(0)          0.000e+00
   O2              0.000e+00   0.000e+00   -64.370   -64.365     0.006     30.40
S(-2)         1.691e-19
   HS-             1.068e-19   8.599e-20   -18.971   -19.066    -0.094     20.79
   H2S             6.226e-20   6.305e-20   -19.206   -19.200     0.006     36.27
   S-2             2.745e-25   1.238e-25   -24.561   -24.907    -0.346     (0)  
   (H2S)2          2.068e-40   2.095e-40   -39.684   -39.679     0.006     30.09
S(6)          2.068e-02
   SO4-2           1.378e-02   6.186e-03    -1.861    -2.209    -0.348     22.05
   CaSO4           6.896e-03   6.984e-03    -2.161    -2.156     0.006      7.50
   HSO4-           6.185e-08   5.044e-08    -7.209    -7.297    -0.089     40.46
   CaHSO4+         4.721e-09   3.850e-09    -8.326    -8.415    -0.089     (0)  

------------------------------Saturation indices-------------------------------

  Phase               SI** log IAP   log K(298 K,   1 atm)

  Anhydrite        -0.13     -4.41   -4.28  CaSO4
  Gypsum            0.18     -4.41   -4.58  CaSO4:2H2O
  H2(g)           -10.91    -14.01   -3.10  H2
  H2O(g)           -1.50     -0.00    1.50  H2O
  H2S(g)          -18.21    -26.14   -7.94  H2S
  O2(g)           -61.47    -64.36   -2.89  O2
  Sulfur          -13.22     -8.34    4.88  S

**For a gas, SI = log10(fugacity). Fugacity = pressure * phi / 1 atm.
  For ideal gases, phi = 1.

Reaction step 20.

Using solution 1.	Supersaturated Ca-SO4 water
Using kinetics 1.	

Kinetics 1.	

	Time step: 3000 seconds  (Incremented time: 8000 seconds)

	Rate name       Delta Moles Total Moles   Reactant        Coefficient

	Gypsum            1.618e-05   4.826e-04   Gypsum                    1

-----------------------------Solution composition------------------------------

	Elements           Molality       Moles

	Ca                2.035e-02   1.017e-03
	S                 2.035e-02   1.017e-03

----------------------------Description of solution----------------------------

                                       pH  =   7.076      Charge balance
                                       pe  =  -1.456      Adjusted to redox equilibrium
      Specific Conductance (µS/cm,  25°C)  = 3206
                          Density (g/cm³)  =   0.99970
                               Volume (L)  =   0.05014
                        Viscosity (mPa s)  =   0.90052
                        Activity of water  =   0.999
                 Ionic strength (mol/kgw)  =   5.437e-02
                       Mass of water (kg)  =   4.998e-02
                 Total alkalinity (eq/kg)  =   1.953e-16
[...]
  Anhydrite        -0.14     -4.42   -4.28  CaSO4
  Gypsum            0.16     -4.42   -4.58  CaSO4:2H2O
  H2(g)           -10.91    -14.01   -3.10  H2
  H2O(g)           -1.50     -0.00    1.50  H2O
  H2S(g)          -18.24    -26.17   -7.94  H2S
  O2(g)           -61.46    -64.35   -2.89  O2
  Sulfur          -13.25     -8.37    4.88  S

**For a gas, SI = log10(fugacity). Fugacity = pressure * phi / 1 atm.
  For ideal gases, phi = 1.

Reaction step 22.

Using solution 1.	Supersaturated Ca-SO4 water
Using kinetics 1.	

Kinetics 1.	

	Time step: 10000 seconds  (Incremented time: 20000 seconds)

	Rate name       Delta Moles Total Moles   Reactant        Coefficient

	Gypsum            2.237e-05   5.125e-04   Gypsum                    1

-----------------------------Solution composition------------------------------

	Elements           Molality       Moles

	Ca                1.976e-02   9.875e-04
	S                 1.976e-02   9.875e-04

----------------------------Description of solution----------------------------

                                       pH  =   7.075      Charge balance
                                       pe  =  -1.597      Adjusted to redox equilibrium
      Specific Conductance (µS/cm,  25°C)  = 3127
                          Density (g/cm³)  =   0.99962
                               Volume (L)  =   0.05014
                        Viscosity (mPa s)  =   0.90031
                        Activity of water  =   0.999
                 Ionic strength (mol/kgw)  =   5.298e-02
                       Mass of water (kg)  =   4.998e-02
                 Total alkalinity (eq/kg)  =   1.896e-16
                         Temperature (°C)  =  25.00
                  Electrical balance (eq)  =  -6.412e-13
 Percent error, 100*(Cat-|An|)/(Cat+|An|)  =  -0.00
                               Iterations  =  47 (122 overall)
                                  Total H  = 5.548572e+00
                                  Total O  = 2.778236e+00

----------------------------Distribution of species----------------------------

                                               Log       Log       Log    mole V
   Species          Molality    Activity  Molality  Activity     Gamma   cm³/mol

   OH-             1.487e-07   1.201e-07    -6.828    -6.920    -0.093     -3.86
   H+              9.892e-08   8.422e-08    -7.005    -7.075    -0.070      0.00
   H2O             5.551e+01   9.994e-01     1.744    -0.000     0.000     18.07
Ca            1.976e-02
   Ca+2            1.324e-02   6.166e-03    -1.878    -2.210    -0.332    -17.61
   CaSO4           6.514e-03   6.594e-03    -2.186    -2.181     0.005      7.50
   CaOH+           1.485e-08   1.214e-08    -7.828    -7.916    -0.087     (0)  
   CaHSO4+         4.463e-09   3.650e-09    -8.350    -8.438    -0.087     (0)  
H(0)          1.549e-14
   H2              7.746e-15   7.841e-15   -14.111   -14.106     0.005     28.61
O(0)          0.000e+00
   O2              0.000e+00   0.000e+00   -64.174   -64.169     0.005     30.40
S(-2)         6.706e-20
   HS-             4.224e-20   3.411e-20   -19.374   -19.467    -0.093     20.79
   H2S             2.481e-20   2.512e-20   -19.605   -19.600     0.005     36.27
   S-2             1.072e-25   4.892e-26   -24.970   -25.310    -0.341     (0)  
   (H2S)2          0.000e+00   0.000e+00   -40.484   -40.478     0.005     30.09
S(6)          1.976e-02
   SO4-2           1.324e-02   6.014e-03    -1.878    -2.221    -0.343     21.91
   CaSO4           6.514e-03   6.594e-03    -2.186    -2.181     0.005      7.50
   HSO4-           6.021e-08   4.924e-08    -7.220    -7.308    -0.087     40.46
   CaHSO4+         4.463e-09   3.650e-09    -8.350    -8.438    -0.087     (0)  

------------------------------Saturation indices-------------------------------

  Phase               SI** log IAP   log K(298 K,   1 atm)

  Anhydrite        -0.15     -4.43   -4.28  CaSO4
  Gypsum            0.15     -4.43   -4.58  CaSO4:2H2O
  H2(g)           -11.00    -14.11   -3.10  H2
  H2O(g)           -1.50     -0.00    1.50  H2O
  H2S(g)          -18.61    -26.54   -7.94  H2S
  O2(g)           -61.28    -64.17   -2.89  O2
  Sulfur          -13.53     -8.64    4.88  S

**For a gas, SI = log10(fugacity). Fugacity = pressure * phi / 1 atm.
  For ideal gases, phi = 1.

Reaction step 23.

Using solution 1.	Supersaturated Ca-SO4 water
Using kinetics 1.	

Kinetics 1.	

	Time step: 10000 seconds  (Incremented time: 30000 seconds)

	Rate name       Delta Moles Total Moles   Reactant        Coefficient

	Gypsum            1.279e-05   5.252e-04   Gypsum                    1

-----------------------------Solution composition------------------------------

	Elements           Molality       Moles

	Ca                1.950e-02   9.748e-04
	S                 1.950e-02   9.748e-04

----------------------------Description of solution----------------------------

                                       pH  =   7.074      Charge balance
                                       pe  =  -1.711      Adjusted to redox equilibrium
      Specific Conductance (µS/cm,  25°C)  = 3093
                          Density (g/cm³)  =   0.99959
                               Volume (L)  =   0.05013
                        Viscosity (mPa s)  =   0.90022
                        Activity of water  =   0.999
                 Ionic strength (mol/kgw)  =   5.238e-02
                       Mass of water (kg)  =   4.998e-02
                 Total alkalinity (eq/kg)  =   1.891e-16
                         Temperature (°C)  =  25.00
                  Electrical balance (eq)  =  -6.411e-13
 Percent error, 100*(Cat-|An|)/(Cat+|An|)  =  -0.00
                               Iterations  =  30 (73 overall)
                                  Total H  = 5.548521e+00
                                  Total O  = 2.778159e+00

----------------------------Distribution of species----------------------------

                                               Log       Log       Log    mole V
   Species          Molality    Activity  Molality  Activity     Gamma   cm³/mol

   OH-             1.484e-07   1.200e-07    -6.829    -6.921    -0.092     -3.87
   H+              9.898e-08   8.432e-08    -7.004    -7.074    -0.070      0.00
   H2O             5.551e+01   9.994e-01     1.744    -0.000     0.000     18.07
Ca            1.950e-02
   Ca+2            1.309e-02   6.115e-03    -1.883    -2.214    -0.331    -17.61
   CaSO4           6.409e-03   6.486e-03    -2.193    -2.188     0.005      7.50
   CaOH+           1.470e-08   1.203e-08    -7.833    -7.920    -0.087     (0)  
   CaHSO4+         4.392e-09   3.595e-09    -8.357    -8.444    -0.087     (0)  
H(0)          2.628e-14
   H2              1.314e-14   1.330e-14   -13.881   -13.876     0.005     28.61
O(0)          0.000e+00
   O2              0.000e+00   0.000e+00   -64.633   -64.628     0.005     30.40
S(-2)         5.512e-19
   HS-             3.469e-19   2.804e-19   -18.460   -18.552    -0.092     20.79
   H2S             2.043e-19   2.067e-19   -18.690   -18.685     0.005     36.27
   S-2             8.774e-25   4.017e-25   -24.057   -24.396    -0.339     (0)  
   (H2S)2          2.225e-39   2.252e-39   -38.653   -38.647     0.005     30.09
S(6)          1.950e-02
   SO4-2           1.309e-02   5.965e-03    -1.883    -2.224    -0.341     21.88
   CaSO4           6.409e-03   6.486e-03    -2.193    -2.188     0.005      7.50
   HSO4-           5.975e-08   4.890e-08    -7.224    -7.311    -0.087     40.46
   CaHSO4+         4.392e-09   3.595e-09    -8.357    -8.444    -0.087     (0)  

------------------------------Saturation indices-------------------------------

  Phase               SI** log IAP   log K(298 K,   1 atm)

  Anhydrite        -0.16     -4.44   -4.28  CaSO4
  Gypsum            0.14     -4.44   -4.58  CaSO4:2H2O
  H2(g)           -10.78    -13.88   -3.10  H2
  H2O(g)           -1.50     -0.00    1.50  H2O
  H2S(g)          -17.69    -25.63   -7.94  H2S
  O2(g)           -61.74    -64.63   -2.89  O2
  Sulfur          -12.84     -7.96    4.88  S

**For a gas, SI = log10(fugacity). Fugacity = pressure * phi / 1 atm.
  For ideal gases, phi = 1.

Reaction step 24.

Using solution 1.	Supersaturated Ca-SO4 water
Using kinetics 1.	

Kinetics 1.	

	Time step: 20000 seconds  (Incremented time: 50000 seconds)

	Rate name       Delta Moles Total Moles   Reactant        Coefficient

	Gypsum            1.613e-05   5.414e-04   Gypsum                    1

-----------------------------Solution composition------------------------------

	Elements           Molality       Moles

	Ca                1.918e-02   9.586e-04
	S                 1.918e-02   9.586e-04

----------------------------Description of solution----------------------------

                                       pH  =   7.073      Charge balance
                                       pe  =  -1.802      Adjusted to redox equilibrium
      Specific Conductance (µS/cm,  25°C)  = 3050
                          Density (g/cm³)  =   0.99955
                               Volume (L)  =   0.05013
                        Viscosity (mPa s)  =   0.90010
                        Activity of water  =   0.999
                 Ionic strength (mol/kgw)  =   5.162e-02
                       Mass of water (kg)  =   4.998e-02
                 Total alkalinity (eq/kg)  =   1.928e-16
                         Temperature (°C)  =  25.00
                  Electrical balance (eq)  =  -6.410e-13
 Percent error, 100*(Cat-|An|)/(Cat+|An|)  =  -0.00
                               Iterations  =  35 (86 overall)
                                  Total H  = 5.548456e+00
                                  Total O  = 2.778063e+00

----------------------------Distribution of species----------------------------

                                               Log       Log       Log    mole V
   Species          Molality    Activity  Molality  Activity     Gamma   cm³/mol

   OH-             1.480e-07   1.198e-07    -6.830    -6.922    -0.092     -3.87
   H+              9.906e-08   8.445e-08    -7.004    -7.073    -0.069      0.00
   H2O             5.551e+01   9.995e-01     1.744    -0.000     0.000     18.07
Ca            1.918e-02
   Ca+2            1.290e-02   6.049e-03    -1.889    -2.218    -0.329    -17.61
   CaSO4           6.276e-03   6.351e-03    -2.202    -2.197     0.005      7.50
   CaOH+           1.450e-08   1.188e-08    -7.839    -7.925    -0.087     (0)  
   CaHSO4+         4.302e-09   3.525e-09    -8.366    -8.453    -0.087     (0)  
H(0)          4.013e-14
   H2              2.006e-14   2.030e-14   -13.698   -13.692     0.005     28.61
O(0)          0.000e+00
   O2              0.000e+00   0.000e+00   -65.001   -64.996     0.005     30.40
S(-2)         2.967e-18
   HS-             1.865e-18   1.510e-18   -17.729   -17.821    -0.092     20.79
   H2S             1.102e-18   1.115e-18   -17.958   -17.953     0.005     36.27
   S-2             4.698e-24   2.159e-24   -23.328   -23.666    -0.338     (0)  
   (H2S)2          6.470e-38   6.548e-38   -37.189   -37.184     0.005     30.09
S(6)          1.918e-02
   SO4-2           1.290e-02   5.904e-03    -1.889    -2.229    -0.340     21.83
   CaSO4           6.276e-03   6.351e-03    -2.202    -2.197     0.005      7.50
   HSO4-           5.916e-08   4.847e-08    -7.228    -7.315    -0.087     40.46
   CaHSO4+         4.302e-09   3.525e-09    -8.366    -8.453    -0.087     (0)  

------------------------------Saturation indices-------------------------------

  Phase               SI** log IAP   log K(298 K,   1 atm)

  Anhydrite        -0.17     -4.45   -4.28  CaSO4
  Gypsum            0.13     -4.45   -4.58  CaSO4:2H2O
  H2(g)           -10.59    -13.69   -3.10  H2
  H2O(g)           -1.50     -0.00    1.50  H2O
  H2S(g)          -16.96    -24.89   -7.94  H2S
  O2(g)           -62.10    -65.00   -2.89  O2
  Sulfur          -12.29     -7.41    4.88  S

**For a gas, SI = log10(fugacity). Fugacity = pressure * phi / 1 atm.
  For ideal gases, phi = 1.

Reaction step 25.

Using solution 1.	Supersaturated Ca-SO4 water
Using kinetics 1.	

Kinetics 1.	

	Time step: 30000 seconds  (Incremented time: 80000 seconds)

	Rate name       Delta Moles Total Moles   Reactant        Coefficient

	Gypsum            1.524e-05   5.566e-04   Gypsum                    1

-----------------------------Solution composition------------------------------

	Elements           Molality       Moles

	Ca                1.888e-02   9.434e-04
	S                 1.888e-02   9.434e-04

----------------------------Description of solution----------------------------

                                       pH  =   7.073      Charge balance
                                       pe  =  -1.811      Adjusted to redox equilibrium
      Specific Conductance (µS/cm,  25°C)  = 3009
                          Density (g/cm³)  =   0.99951
                               Volume (L)  =   0.05013
                        Viscosity (mPa s)  =   0.89999
                        Activity of water  =   0.999
                 Ionic strength (mol/kgw)  =   5.090e-02
                       Mass of water (kg)  =   4.998e-02
                 Total alkalinity (eq/kg)  =   1.860e-16
                         Temperature (°C)  =  25.00
                  Electrical balance (eq)  =  -6.409e-13
 Percent error, 100*(Cat-|An|)/(Cat+|An|)  =  -0.00
                               Iterations  =  35 (86 overall)
                                  Total H  = 5.548395e+00
                                  Total O  = 2.777971e+00

----------------------------Distribution of species----------------------------

                                               Log       Log       Log    mole V
   Species          Molality    Activity  Molality  Activity     Gamma   cm³/mol

   OH-             1.476e-07   1.196e-07    -6.831    -6.922    -0.091     -3.87
   H+              9.914e-08   8.457e-08    -7.004    -7.073    -0.069      0.00
   H2O             5.551e+01   9.995e-01     1.744    -0.000     0.000     18.07
Ca            1.888e-02
   Ca+2            1.272e-02   5.987e-03    -1.895    -2.223    -0.327    -17.62
   CaSO4           6.151e-03   6.223e-03    -2.211    -2.206     0.005      7.50
   CaOH+           1.432e-08   1.174e-08    -7.844    -7.930    -0.086     (0)  
   CaHSO4+         4.218e-09   3.459e-09    -8.375    -8.461    -0.086     (0)  
H(0)          4.198e-14
   H2              2.099e-14   2.124e-14   -13.678   -13.673     0.005     28.61
O(0)          0.000e+00
   O2              0.000e+00   0.000e+00   -65.040   -65.035     0.005     30.40
S(-2)         3.522e-18
   HS-             2.212e-18   1.793e-18   -17.655   -17.747    -0.091     20.79
   H2S             1.310e-18   1.325e-18   -17.883   -17.878     0.005     36.27
   S-2             5.548e-24   2.560e-24   -23.256   -23.592    -0.336     (0)  
   (H2S)2          9.150e-38   9.258e-38   -37.039   -37.033     0.005     30.09
S(6)          1.888e-02
   SO4-2           1.272e-02   5.845e-03    -1.895    -2.233    -0.338     21.78
   CaSO4           6.151e-03   6.223e-03    -2.211    -2.206     0.005      7.50
   HSO4-           5.860e-08   4.806e-08    -7.232    -7.318    -0.086     40.46
   CaHSO4+         4.218e-09   3.459e-09    -8.375    -8.461    -0.086     (0)  

------------------------------Saturation indices-------------------------------

  Phase               SI** log IAP   log K(298 K,   1 atm)

  Anhydrite        -0.18     -4.46   -4.28  CaSO4
  Gypsum            0.13     -4.46   -4.58  CaSO4:2H2O
  H2(g)           -10.57    -13.67   -3.10  H2
  H2O(g)           -1.50     -0.00    1.50  H2O
  H2S(g)          -16.88    -24.82   -7.94  H2S
  O2(g)           -62.14    -65.03   -2.89  O2
  Sulfur          -12.24     -7.35    4.88  S

**For a gas, SI = log10(fugacity). Fugacity = pressure * phi / 1 atm.
  For ideal gases, phi = 1.

Reaction step 26.

Using solution 1.	Supersaturated Ca-SO4 water
Using kinetics 1.	

Kinetics 1.	

	Time step: 20000 seconds  (Incremented time: 100000 seconds)

	Rate name       Delta Moles Total Moles   Reactant        Coefficient

	Gypsum            7.512e-06   5.641e-04   Gypsum                    1

-----------------------------Solution composition------------------------------

	Elements           Molality       Moles

	Ca                1.873e-02   9.359e-04
	S                 1.873e-02   9.359e-04

----------------------------Description of solution----------------------------

                                       pH  =   7.072      Charge balance
                                       pe  =  -1.805      Adjusted to redox equilibrium
      Specific Conductance (µS/cm,  25°C)  = 2988
                          Density (g/cm³)  =   0.99949
                               Volume (L)  =   0.05013
                        Viscosity (mPa s)  =   0.89993
                        Activity of water  =   0.999
                 Ionic strength (mol/kgw)  =   5.054e-02
                       Mass of water (kg)  =   4.998e-02
                 Total alkalinity (eq/kg)  =   1.696e-16
                         Temperature (°C)  =  25.00
                  Electrical balance (eq)  =  -1.392e-12
 Percent error, 100*(Cat-|An|)/(Cat+|An|)  =  -0.00
                               Iterations  =  22 (52 overall)
                                  Total H  = 5.548365e+00
                                  Total O  = 2.777926e+00

----------------------------Distribution of species----------------------------

                                               Log       Log       Log    mole V
   Species          Molality    Activity  Molality  Activity     Gamma   cm³/mol

   OH-             1.474e-07   1.195e-07    -6.831    -6.922    -0.091     -3.87
   H+              9.917e-08   8.463e-08    -7.004    -7.072    -0.069      0.00
   H2O             5.551e+01   9.995e-01     1.744    -0.000     0.000     18.07
Ca            1.873e-02
   Ca+2            1.264e-02   5.956e-03    -1.898    -2.225    -0.327    -17.62
   CaSO4           6.089e-03   6.160e-03    -2.215    -2.210     0.005      7.50
   CaOH+           1.423e-08   1.167e-08    -7.847    -7.933    -0.086     (0)  
   CaHSO4+         4.176e-09   3.427e-09    -8.379    -8.465    -0.086     (0)  
H(0)          4.079e-14
   H2              2.039e-14   2.063e-14   -13.691   -13.685     0.005     28.61
O(0)          0.000e+00
   O2              0.000e+00   0.000e+00   -65.015   -65.010     0.005     30.40
S(-2)         3.122e-18
   HS-             1.960e-18   1.589e-18   -17.708   -17.799    -0.091     20.79
   H2S             1.162e-18   1.176e-18   -17.935   -17.930     0.005     36.27
   S-2             4.905e-24   2.268e-24   -23.309   -23.644    -0.335     (0)  
   (H2S)2          7.202e-38   7.286e-38   -37.143   -37.138     0.005     30.09
S(6)          1.873e-02
   SO4-2           1.264e-02   5.816e-03    -1.898    -2.235    -0.337     21.75
   CaSO4           6.089e-03   6.160e-03    -2.215    -2.210     0.005      7.50
   HSO4-           5.832e-08   4.785e-08    -7.234    -7.320    -0.086     40.45
   CaHSO4+         4.176e-09   3.427e-09    -8.379    -8.465    -0.086     (0)  

------------------------------Saturation indices-------------------------------

  Phase               SI** log IAP   log K(298 K,   1 atm)

  Anhydrite        -0.18     -4.46   -4.28  CaSO4
  Gypsum            0.12     -4.46   -4.58  CaSO4:2H2O
  H2(g)           -10.58    -13.69   -3.10  H2
  H2O(g)           -1.50     -0.00    1.50  H2O
  H2S(g)          -16.94    -24.87   -7.94  H2S
  O2(g)           -62.12    -65.01   -2.89  O2
  Sulfur          -12.28     -7.39    4.88  S

**For a gas, SI = log10(fugacity). Fugacity = pressure * phi / 1 atm.
  For ideal gases, phi = 1.

------------------
End of simulation.
------------------

------------------------------------
Reading input data for simulation 2.
------------------------------------

----------------------------------
End of Run after 0.020309 Seconds.
----------------------------------

