   Input file: /home/zhouw/Documents/Codes/ReactiveSoluteTransport/Benchmark/gypsum_single_fracture_10cm_ap5mm/results_total_injection_reference_volume_20260426_151504/phreeqc/tt_1e04/tt_1e04.pqi
  Output file: /home/zhouw/Documents/Codes/ReactiveSoluteTransport/Benchmark/gypsum_single_fracture_10cm_ap5mm/results_total_injection_reference_volume_20260426_151504/phreeqc/tt_1e04/tt_1e04.pqo
Database file: /home/zhouw/Documents/Codes/phreeqc-3.8.6-17100/database/phreeqc.dat

------------------
Reading data base.
------------------

	SOLUTION_MASTER_SPECIES
	SOLUTION_SPECIES
	PHASES
	GAS_BINARY_PARAMETERS
	EXCHANGE_MASTER_SPECIES
	EXCHANGE_SPECIES
	SURFACE_MASTER_SPECIES
	SURFACE_SPECIES
	MEAN_GAMMAS
	RATES
	END
------------------------------------
Reading input data for simulation 1.
------------------------------------

	TITLE Total-injection reference gypsum kinetics for t_cross=1.000000e+04 s
	SOLUTION 1 Pure water
	    temp    25.0
	    pH      7.0
	    pe      4.0
	    water  5.000000000000e-01
	RATES
	Gypsum
	start
	  10 omega = SR("Gypsum")
	  20 IF (M <= 0 AND omega <= 1) THEN GOTO 100
	  30 area = PARM(2)
	  40 rate = PARM(1) * area * (1 - omega)
	  50 moles = rate * TIME
	  60 IF (moles > 0 AND moles > M) THEN moles = M
	  70 GOTO 200
	  100 moles = 0
	  200 SAVE moles
	end
	KINETICS 1
	Gypsum
	    parms  4.000000000000e-05  2.000000000000e-02
	    m0     6.765899864682e+00
	    m      6.765899864682e+00
	    tol    1e-8
	    steps  1 1 2 3 5 8 10 20 30 50 80 100 200 300 500 800 1000 2000 3000 5000 8000 10000 20000 30000 50000 80000 100000
	    step_divide 1e-6
	    bad_step_max 50000
	    runge_kutta 6
	INCREMENTAL_REACTIONS true
	SELECTED_OUTPUT
	    file                tt_1e04.sel
	    reset               false
	    totals              Ca S(6)
	    kinetics            Gypsum
	    saturation_indices  Gypsum
	USER_PUNCH
	    headings Time_s pH SI_Gypsum V_Gyp_cm3 DV_Gyp_cm3
	start
	  10 PUNCH TOTAL_TIME
	  20 PUNCH -LA("H+")
	  30 PUNCH SI("Gypsum")
	  40 v_gyp = KIN("Gypsum") * 73.9
	  50 PUNCH v_gyp
	  60 PUNCH 5.000000000000e+02 - v_gyp
	end
	END
-----
TITLE
-----

 Total-injection reference gypsum kinetics for t_cross=1.000000e+04 s

-------------------------------------------
Beginning of initial solution calculations.
-------------------------------------------

Initial solution 1.	Pure water

-----------------------------Solution composition------------------------------

	Elements           Molality       Moles

	Pure water     

----------------------------Description of solution----------------------------

                                       pH  =   7.000    
                                       pe  =   4.000    
      Specific Conductance (µS/cm,  25°C)  = 0
                          Density (g/cm³)  =   0.99704
                               Volume (L)  =   0.50148
                        Viscosity (mPa s)  =   0.89002
                        Activity of water  =   1.000
                 Ionic strength (mol/kgw)  =   1.007e-07
                       Mass of water (kg)  =   5.000e-01
                 Total alkalinity (eq/kg)  =   1.217e-09
                         Temperature (°C)  =  25.00
                  Electrical balance (eq)  =  -6.083e-10
 Percent error, 100*(Cat-|An|)/(Cat+|An|)  =  -0.60
                               Iterations  =   0
                                  Total H  = 5.550622e+01
                                  Total O  = 2.775311e+01

----------------------------Distribution of species----------------------------

                                               Log       Log       Log    mole V
   Species          Molality    Activity  Molality  Activity     Gamma   cm³/mol

   OH-             1.013e-07   1.012e-07    -6.995    -6.995    -0.000     -4.14
   H+              1.001e-07   1.000e-07    -7.000    -7.000    -0.000      0.00
   H2O             5.551e+01   1.000e+00     1.744     0.000     0.000     18.07
H(0)          1.416e-25
   H2              7.079e-26   7.079e-26   -25.150   -25.150     0.000     28.61
O(0)          0.000e+00
   O2              0.000e+00   0.000e+00   -42.080   -42.080     0.000     30.40

------------------------------Saturation indices-------------------------------

  Phase               SI** log IAP   log K(298 K,   1 atm)

  H2(g)           -22.05    -25.15   -3.10  H2
  H2O(g)           -1.50      0.00    1.50  H2O
  O2(g)           -39.19    -42.08   -2.89  O2

**For a gas, SI = log10(fugacity). Fugacity = pressure * phi / 1 atm.
  For ideal gases, phi = 1.

-----------------------------------------
Beginning of batch-reaction calculations.
-----------------------------------------

Reaction step 1.

Using solution 1.	Pure water
Using kinetics 1.	

Kinetics 1.	

	Time step: 1 seconds  (Incremented time: 1 seconds)

	Rate name       Delta Moles Total Moles   Reactant        Coefficient

	Gypsum           -8.000e-07   6.766e+00   Gypsum                    1

-----------------------------Solution composition------------------------------

	Elements           Molality       Moles

	Ca                1.600e-06   8.000e-07
	S                 1.600e-06   8.000e-07

----------------------------Description of solution----------------------------

                                       pH  =   7.000      Charge balance
                                       pe  =  11.691      Adjusted to redox equilibrium
      Specific Conductance (µS/cm,  25°C)  = 0
                          Density (g/cm³)  =   0.99704
                               Volume (L)  =   0.50148
                        Viscosity (mPa s)  =   0.89006
                        Activity of water  =   1.000
                 Ionic strength (mol/kgw)  =   6.499e-06
                       Mass of water (kg)  =   5.000e-01
                 Total alkalinity (eq/kg)  =   1.217e-09
                         Temperature (°C)  =  25.00
                  Electrical balance (eq)  =  -6.083e-10
 Percent error, 100*(Cat-|An|)/(Cat+|An|)  =  -0.02
                               Iterations  =  43
                                  Total H  = 5.550622e+01
                                  Total O  = 2.775311e+01

----------------------------Distribution of species----------------------------

                                               Log       Log       Log    mole V
   Species          Molality    Activity  Molality  Activity     Gamma   cm³/mol

   OH-             1.015e-07   1.012e-07    -6.993    -6.995    -0.001     -4.14
   H+              1.003e-07   1.000e-07    -6.999    -7.000    -0.001      0.00
   H2O             5.551e+01   1.000e+00     1.744    -0.000     0.000     18.07
Ca            1.600e-06
   Ca+2            1.600e-06   1.581e-06    -5.796    -5.801    -0.005    -18.25
   CaSO4           4.443e-10   4.443e-10    -9.352    -9.352     0.000      7.50
   CaOH+           2.631e-12   2.623e-12   -11.580   -11.581    -0.001     (0)  
   CaHSO4+         2.929e-16   2.920e-16   -15.533   -15.535    -0.001     (0)  
H(0)          0.000e+00
   H2              0.000e+00   0.000e+00   -40.533   -40.533     0.000     28.61
O(0)          9.697e-12
   O2              4.848e-12   4.848e-12   -11.314   -11.314     0.000     30.40
S(-2)         0.000e+00
   HS-             0.000e+00   0.000e+00  -128.681  -128.682    -0.001     20.58
   H2S             0.000e+00   0.000e+00  -128.741  -128.741     0.000     36.27
   S-2             0.000e+00   0.000e+00  -134.595  -134.600    -0.005     (0)  
   (H2S)2          0.000e+00   0.000e+00  -258.760  -258.760     0.000     30.09
S(6)          1.600e-06
   SO4-2           1.600e-06   1.581e-06    -5.796    -5.801    -0.005     14.48
   CaSO4           4.443e-10   4.443e-10    -9.352    -9.352     0.000      7.50
   HSO4-           1.541e-11   1.537e-11   -10.812   -10.813    -0.001     40.25
   CaHSO4+         2.929e-16   2.920e-16   -15.533   -15.535    -0.001     (0)  

------------------------------Saturation indices-------------------------------

  Phase               SI** log IAP   log K(298 K,   1 atm)

  Anhydrite        -7.32    -11.60   -4.28  CaSO4
  Gypsum           -7.02    -11.60   -4.58  CaSO4:2H2O
  H2(g)           -37.43    -40.53   -3.10  H2
  H2O(g)           -1.50     -0.00    1.50  H2O
  H2S(g)         -127.75   -135.68   -7.94  H2S
  O2(g)            -8.42    -11.31   -2.89  O2
  Sulfur          -96.24    -91.36    4.88  S

**For a gas, SI = log10(fugacity). Fugacity = pressure * phi / 1 atm.
  For ideal gases, phi = 1.

Reaction step 2.

Using solution 1.	Pure water
Using kinetics 1.	

Kinetics 1.	

	Time step: 1 seconds  (Incremented time: 2 seconds)

	Rate name       Delta Moles Total Moles   Reactant        Coefficient

	Gypsum           -8.000e-07   6.766e+00   Gypsum                    1

-----------------------------Solution composition------------------------------

	Elements           Molality       Moles

	Ca                3.200e-06   1.600e-06
	S                 3.200e-06   1.600e-06

----------------------------Description of solution----------------------------

                                       pH  =   7.000      Charge balance
                                       pe  =  11.691      Adjusted to redox equilibrium
      Specific Conductance (µS/cm,  25°C)  = 0
                          Density (g/cm³)  =   0.99704
                               Volume (L)  =   0.50148
                        Viscosity (mPa s)  =   0.89007
                        Activity of water  =   1.000
                 Ionic strength (mol/kgw)  =   1.289e-05
                       Mass of water (kg)  =   5.000e-01
                 Total alkalinity (eq/kg)  =   1.217e-09
                         Temperature (°C)  =  25.00
                  Electrical balance (eq)  =  -6.083e-10
 Percent error, 100*(Cat-|An|)/(Cat+|An|)  =  -0.01
                               Iterations  =  27
                                  Total H  = 5.550622e+01
                                  Total O  = 2.775312e+01

----------------------------Distribution of species----------------------------

                                               Log       Log       Log    mole V
   Species          Molality    Activity  Molality  Activity     Gamma   cm³/mol

   OH-             1.017e-07   1.012e-07    -6.993    -6.995    -0.002     -4.13
   H+              1.004e-07   9.999e-08    -6.998    -7.000    -0.002      0.00
   H2O             5.551e+01   1.000e+00     1.744    -0.000     0.000     18.07
Ca            3.200e-06
   Ca+2            3.198e-06   3.145e-06    -5.495    -5.502    -0.007    -18.24
   CaSO4           1.759e-09   1.759e-09    -8.755    -8.755     0.000      7.50
   CaOH+           5.242e-12   5.220e-12   -11.281   -11.282    -0.002     (0)  
   CaHSO4+         1.161e-15   1.156e-15   -14.935   -14.937    -0.002     (0)  
H(0)          0.000e+00
   H2              0.000e+00   0.000e+00   -40.533   -40.533     0.000     28.61
O(0)          9.696e-12
   O2              4.848e-12   4.848e-12   -11.314   -11.314     0.000     30.40
S(-2)         0.000e+00
   HS-             0.000e+00   0.000e+00  -128.382  -128.384    -0.002     20.58
   H2S             0.000e+00   0.000e+00  -128.442  -128.442     0.000     36.27
   S-2             0.000e+00   0.000e+00  -134.294  -134.302    -0.007     (0)  
   (H2S)2          0.000e+00   0.000e+00  -258.162  -258.162     0.000     30.09
S(6)          3.200e-06
   SO4-2           3.198e-06   3.145e-06    -5.495    -5.502    -0.007     14.53
   CaSO4           1.759e-09   1.759e-09    -8.755    -8.755     0.000      7.50
   HSO4-           3.070e-11   3.057e-11   -10.513   -10.515    -0.002     40.25
   CaHSO4+         1.161e-15   1.156e-15   -14.935   -14.937    -0.002     (0)  

------------------------------Saturation indices-------------------------------

  Phase               SI** log IAP   log K(298 K,   1 atm)

  Anhydrite        -6.73    -11.00   -4.28  CaSO4
  Gypsum           -6.42    -11.00   -4.58  CaSO4:2H2O
  H2(g)           -37.43    -40.53   -3.10  H2
  H2O(g)           -1.50     -0.00    1.50  H2O
  H2S(g)         -127.45   -135.38   -7.94  H2S
  O2(g)            -8.42    -11.31   -2.89  O2
  Sulfur          -95.94    -91.06    4.88  S

**For a gas, SI = log10(fugacity). Fugacity = pressure * phi / 1 atm.
  For ideal gases, phi = 1.

Reaction step 3.

Using solution 1.	Pure water
Using kinetics 1.	

Kinetics 1.	

	Time step: 2 seconds  (Incremented time: 4 seconds)

	Rate name       Delta Moles Total Moles   Reactant        Coefficient

	Gypsum           -1.600e-06   6.766e+00   Gypsum                    1

-----------------------------Solution composition------------------------------

	Elements           Molality       Moles

	Ca                6.400e-06   3.200e-06
	S                 6.400e-06   3.200e-06

----------------------------Description of solution----------------------------

                                       pH  =   7.000      Charge balance
                                       pe  =  11.691      Adjusted to redox equilibrium
      Specific Conductance (µS/cm,  25°C)  = 1
                          Density (g/cm³)  =   0.99704
                               Volume (L)  =   0.50148
                        Viscosity (mPa s)  =   0.89010
                        Activity of water  =   1.000
                 Ionic strength (mol/kgw)  =   2.567e-05
                       Mass of water (kg)  =   5.000e-01
                 Total alkalinity (eq/kg)  =   1.217e-09
                         Temperature (°C)  =  25.00
                  Electrical balance (eq)  =  -6.083e-10
 Percent error, 100*(Cat-|An|)/(Cat+|An|)  =  -0.00
                               Iterations  =  61
                                  Total H  = 5.550623e+01
                                  Total O  = 2.775313e+01

----------------------------Distribution of species----------------------------

                                               Log       Log       Log    mole V
   Species          Molality    Activity  Molality  Activity     Gamma   cm³/mol

   OH-             1.018e-07   1.012e-07    -6.992    -6.995    -0.003     -4.13
   H+              1.006e-07   9.998e-08    -6.998    -7.000    -0.003      0.00
   H2O             5.551e+01   1.000e+00     1.744    -0.000     0.000     18.07
Ca            6.400e-06
   Ca+2            6.393e-06   6.244e-06    -5.194    -5.205    -0.010    -18.24
   CaSO4           6.933e-09   6.933e-09    -8.159    -8.159     0.000      7.50
   CaOH+           1.043e-11   1.036e-11   -10.982   -10.984    -0.003     (0)  
   CaHSO4+         4.583e-15   4.556e-15   -14.339   -14.341    -0.003     (0)  
H(0)          0.000e+00
   H2              0.000e+00   0.000e+00   -40.533   -40.533     0.000     28.61
O(0)          9.704e-12
   O2              4.852e-12   4.852e-12   -11.314   -11.314     0.000     30.40
S(-2)         0.000e+00
   HS-             0.000e+00   0.000e+00  -128.084  -128.086    -0.003     20.58
   H2S             0.000e+00   0.000e+00  -128.145  -128.145     0.000     36.27
   S-2             0.000e+00   0.000e+00  -133.994  -134.004    -0.010     (0)  
   (H2S)2          0.000e+00   0.000e+00  -257.568  -257.568     0.000     30.09
S(6)          6.400e-06
   SO4-2           6.393e-06   6.244e-06    -5.194    -5.205    -0.010     14.59
   CaSO4           6.933e-09   6.933e-09    -8.159    -8.159     0.000      7.50
   HSO4-           6.105e-11   6.069e-11   -10.214   -10.217    -0.003     40.25
   CaHSO4+         4.583e-15   4.556e-15   -14.339   -14.341    -0.003     (0)  

------------------------------Saturation indices-------------------------------

  Phase               SI** log IAP   log K(298 K,   1 atm)

  Anhydrite        -6.13    -10.41   -4.28  CaSO4
  Gypsum           -5.83    -10.41   -4.58  CaSO4:2H2O
  H2(g)           -37.43    -40.53   -3.10  H2
  H2O(g)           -1.50     -0.00    1.50  H2O
  H2S(g)         -127.15   -135.09   -7.94  H2S
  O2(g)            -8.42    -11.31   -2.89  O2
  Sulfur          -95.64    -90.76    4.88  S

**For a gas, SI = log10(fugacity). Fugacity = pressure * phi / 1 atm.
  For ideal gases, phi = 1.

Reaction step 4.

Using solution 1.	Pure water
Using kinetics 1.	

Kinetics 1.	

	Time step: 3 seconds  (Incremented time: 7 seconds)

	Rate name       Delta Moles Total Moles   Reactant        Coefficient

	Gypsum           -2.400e-06   6.766e+00   Gypsum                    1

-----------------------------Solution composition------------------------------

	Elements           Molality       Moles

	Ca                1.120e-05   5.600e-06
	S                 1.120e-05   5.600e-06

----------------------------Description of solution----------------------------

                                       pH  =   7.000      Charge balance
                                       pe  =  11.691      Adjusted to redox equilibrium
      Specific Conductance (µS/cm,  25°C)  = 3
                          Density (g/cm³)  =   0.99704
                               Volume (L)  =   0.50148
                        Viscosity (mPa s)  =   0.89012
                        Activity of water  =   1.000
                 Ionic strength (mol/kgw)  =   4.482e-05
                       Mass of water (kg)  =   5.000e-01
                 Total alkalinity (eq/kg)  =   1.217e-09
                         Temperature (°C)  =  25.00
                  Electrical balance (eq)  =  -6.083e-10
 Percent error, 100*(Cat-|An|)/(Cat+|An|)  =  -0.00
                               Iterations  =  89
                                  Total H  = 5.550624e+01
                                  Total O  = 2.775314e+01

----------------------------Distribution of species----------------------------

                                               Log       Log       Log    mole V
   Species          Molality    Activity  Molality  Activity     Gamma   cm³/mol

   OH-             1.020e-07   1.013e-07    -6.991    -6.995    -0.003     -4.13
   H+              1.007e-07   9.997e-08    -6.997    -7.000    -0.003      0.00
   H2O             5.551e+01   1.000e+00     1.744    -0.000     0.000     18.07
Ca            1.120e-05
   Ca+2            1.118e-05   1.084e-05    -4.952    -4.965    -0.014    -18.23
   CaSO4           2.088e-08   2.088e-08    -7.680    -7.680     0.000      7.50
   CaOH+           1.813e-11   1.799e-11   -10.742   -10.745    -0.003     (0)  
   CaHSO4+         1.383e-14   1.372e-14   -13.859   -13.863    -0.003     (0)  
H(0)          0.000e+00
   H2              0.000e+00   0.000e+00   -40.533   -40.533     0.000     28.61
O(0)          9.719e-12
   O2              4.859e-12   4.859e-12   -11.313   -11.313     0.000     30.40
S(-2)         0.000e+00
   HS-             0.000e+00   0.000e+00  -127.845  -127.848    -0.003     20.58
   H2S             0.000e+00   0.000e+00  -127.907  -127.907     0.000     36.27
   S-2             0.000e+00   0.000e+00  -133.753  -133.766    -0.014     (0)  
   (H2S)2          0.000e+00   0.000e+00  -257.092  -257.092     0.000     30.09
S(6)          1.120e-05
   SO4-2           1.118e-05   1.084e-05    -4.952    -4.965    -0.014     14.66
   CaSO4           2.088e-08   2.088e-08    -7.680    -7.680     0.000      7.50
   HSO4-           1.061e-10   1.053e-10    -9.974    -9.977    -0.003     40.25
   CaHSO4+         1.383e-14   1.372e-14   -13.859   -13.863    -0.003     (0)  

------------------------------Saturation indices-------------------------------

  Phase               SI** log IAP   log K(298 K,   1 atm)

  Anhydrite        -5.65     -9.93   -4.28  CaSO4
  Gypsum           -5.35     -9.93   -4.58  CaSO4:2H2O
  H2(g)           -37.43    -40.53   -3.10  H2
  H2O(g)           -1.50     -0.00    1.50  H2O
  H2S(g)         -126.91   -134.85   -7.94  H2S
  O2(g)            -8.42    -11.31   -2.89  O2
  Sulfur          -95.41    -90.52    4.88  S

**For a gas, SI = log10(fugacity). Fugacity = pressure * phi / 1 atm.
  For ideal gases, phi = 1.

Reaction step 5.

Using solution 1.	Pure water
Using kinetics 1.	

Kinetics 1.	

	Time step: 5 seconds  (Incremented time: 12 seconds)

	Rate name       Delta Moles Total Moles   Reactant        Coefficient

	Gypsum           -4.000e-06   6.766e+00   Gypsum                    1

-----------------------------Solution composition------------------------------

	Elements           Molality       Moles

	Ca                1.920e-05   9.600e-06
	S                 1.920e-05   9.600e-06

----------------------------Description of solution----------------------------

                                       pH  =   7.000      Charge balance
                                       pe  =  11.691      Adjusted to redox equilibrium
      Specific Conductance (µS/cm,  25°C)  = 5
                          Density (g/cm³)  =   0.99705
                               Volume (L)  =   0.50148
                        Viscosity (mPa s)  =   0.89016
                        Activity of water  =   1.000
                 Ionic strength (mol/kgw)  =   7.666e-05
                       Mass of water (kg)  =   5.000e-01
                 Total alkalinity (eq/kg)  =   1.217e-09
                         Temperature (°C)  =  25.00
                  Electrical balance (eq)  =  -6.083e-10
 Percent error, 100*(Cat-|An|)/(Cat+|An|)  =  -0.00
                               Iterations  = 136
                                  Total H  = 5.550626e+01
                                  Total O  = 2.775317e+01

----------------------------Distribution of species----------------------------

                                               Log       Log       Log    mole V
   Species          Molality    Activity  Molality  Activity     Gamma   cm³/mol

   OH-             1.023e-07   1.013e-07    -6.990    -6.994    -0.004     -4.13
   H+              1.009e-07   9.994e-08    -6.996    -7.000    -0.004      0.00
   H2O             5.551e+01   1.000e+00     1.744    -0.000     0.000     18.07
Ca            1.920e-05
   Ca+2            1.914e-05   1.838e-05    -4.718    -4.736    -0.018    -18.22
   CaSO4           6.007e-08   6.007e-08    -7.221    -7.221     0.000      7.50
   CaOH+           3.083e-11   3.052e-11   -10.511   -10.515    -0.004     (0)  
   CaHSO4+         3.987e-14   3.946e-14   -13.399   -13.404    -0.004     (0)  
H(0)          0.000e+00
   H2              0.000e+00   0.000e+00   -40.533   -40.533     0.000     28.61
O(0)          9.724e-12
   O2              4.862e-12   4.862e-12   -11.313   -11.313     0.000     30.40
S(-2)         0.000e+00
   HS-             0.000e+00   0.000e+00  -127.615  -127.620    -0.004     20.58
   H2S             0.000e+00   0.000e+00  -127.678  -127.678     0.000     36.27
   S-2             0.000e+00   0.000e+00  -133.520  -133.537    -0.018     (0)  
   (H2S)2          0.000e+00   0.000e+00  -256.635  -256.635     0.000     30.09
S(6)          1.920e-05
   SO4-2           1.914e-05   1.838e-05    -4.718    -4.736    -0.018     14.74
   CaSO4           6.007e-08   6.007e-08    -7.221    -7.221     0.000      7.50
   HSO4-           1.804e-10   1.786e-10    -9.744    -9.748    -0.004     40.26
   CaHSO4+         3.987e-14   3.946e-14   -13.399   -13.404    -0.004     (0)  

------------------------------Saturation indices-------------------------------

  Phase               SI** log IAP   log K(298 K,   1 atm)

  Anhydrite        -5.19     -9.47   -4.28  CaSO4
  Gypsum           -4.89     -9.47   -4.58  CaSO4:2H2O
  H2(g)           -37.43    -40.53   -3.10  H2
  H2O(g)           -1.50     -0.00    1.50  H2O
  H2S(g)         -126.68   -134.62   -7.94  H2S
  O2(g)            -8.42    -11.31   -2.89  O2
  Sulfur          -95.18    -90.29    4.88  S

**For a gas, SI = log10(fugacity). Fugacity = pressure * phi / 1 atm.
  For ideal gases, phi = 1.

Reaction step 6.

Using solution 1.	Pure water
Using kinetics 1.	

Kinetics 1.	

	Time step: 8 seconds  (Incremented time: 20 seconds)

	Rate name       Delta Moles Total Moles   Reactant        Coefficient

	Gypsum           -6.400e-06   6.766e+00   Gypsum                    1

-----------------------------Solution composition------------------------------

	Elements           Molality       Moles

	Ca                3.200e-05   1.600e-05
	S                 3.200e-05   1.600e-05

----------------------------Description of solution----------------------------

                                       pH  =   7.000      Charge balance
                                       pe  =  11.691      Adjusted to redox equilibrium
      Specific Conductance (µS/cm,  25°C)  = 8
                          Density (g/cm³)  =   0.99705
                               Volume (L)  =   0.50148
                        Viscosity (mPa s)  =   0.89020
                        Activity of water  =   1.000
                 Ionic strength (mol/kgw)  =   1.275e-04
                       Mass of water (kg)  =   5.000e-01
                 Total alkalinity (eq/kg)  =   1.217e-09
                         Temperature (°C)  =  25.00
                  Electrical balance (eq)  =  -6.083e-10
 Percent error, 100*(Cat-|An|)/(Cat+|An|)  =  -0.00
                               Iterations  = 208
                                  Total H  = 5.550628e+01
                                  Total O  = 2.775320e+01

----------------------------Distribution of species----------------------------

                                               Log       Log       Log    mole V
   Species          Molality    Activity  Molality  Activity     Gamma   cm³/mol

   OH-             1.027e-07   1.013e-07    -6.989    -6.994    -0.006     -4.13
   H+              1.012e-07   9.990e-08    -6.995    -7.000    -0.006      0.00
   H2O             5.551e+01   1.000e+00     1.744    -0.000     0.000     18.07
Ca            3.200e-05
   Ca+2            3.184e-05   3.022e-05    -4.497    -4.520    -0.023    -18.21
   CaSO4           1.624e-07   1.624e-07    -6.789    -6.789     0.000      7.50
   CaOH+           5.087e-11   5.021e-11   -10.294   -10.299    -0.006     (0)  
   CaHSO4+         1.081e-13   1.067e-13   -12.966   -12.972    -0.006     (0)  
H(0)          0.000e+00
   H2              0.000e+00   0.000e+00   -40.533   -40.533     0.000     28.61
O(0)          9.708e-12
   O2              4.854e-12   4.854e-12   -11.314   -11.314     0.000     30.40
S(-2)         0.000e+00
   HS-             0.000e+00   0.000e+00  -127.397  -127.402    -0.006     20.58
   H2S             0.000e+00   0.000e+00  -127.461  -127.461     0.000     36.27
   S-2             0.000e+00   0.000e+00  -133.297  -133.320    -0.023     (0)  
   (H2S)2          0.000e+00   0.000e+00  -256.200  -256.200     0.000     30.09
S(6)          3.200e-05
   SO4-2           3.184e-05   3.022e-05    -4.497    -4.520    -0.023     14.84
   CaSO4           1.624e-07   1.624e-07    -6.789    -6.789     0.000      7.50
   HSO4-           2.974e-10   2.935e-10    -9.527    -9.532    -0.006     40.26
   CaHSO4+         1.081e-13   1.067e-13   -12.966   -12.972    -0.006     (0)  

------------------------------Saturation indices-------------------------------

  Phase               SI** log IAP   log K(298 K,   1 atm)

  Anhydrite        -4.76     -9.04   -4.28  CaSO4
  Gypsum           -4.46     -9.04   -4.58  CaSO4:2H2O
  H2(g)           -37.43    -40.53   -3.10  H2
  H2O(g)           -1.50     -0.00    1.50  H2O
  H2S(g)         -126.47   -134.40   -7.94  H2S
  O2(g)            -8.42    -11.31   -2.89  O2
  Sulfur          -94.96    -90.08    4.88  S

**For a gas, SI = log10(fugacity). Fugacity = pressure * phi / 1 atm.
  For ideal gases, phi = 1.

Reaction step 7.

Using solution 1.	Pure water
Using kinetics 1.	

Kinetics 1.	

	Time step: 10 seconds  (Incremented time: 30 seconds)

	Rate name       Delta Moles Total Moles   Reactant        Coefficient

	Gypsum           -8.000e-06   6.766e+00   Gypsum                    1

-----------------------------Solution composition------------------------------

	Elements           Molality       Moles

	Ca                4.800e-05   2.400e-05
	S                 4.800e-05   2.400e-05

----------------------------Description of solution----------------------------

                                       pH  =   7.001      Charge balance
                                       pe  =  11.691      Adjusted to redox equilibrium
      Specific Conductance (µS/cm,  25°C)  = 12
                          Density (g/cm³)  =   0.99705
                               Volume (L)  =   0.50148
                        Viscosity (mPa s)  =   0.89024
                        Activity of water  =   1.000
                 Ionic strength (mol/kgw)  =   1.907e-04
                       Mass of water (kg)  =   5.000e-01
                 Total alkalinity (eq/kg)  =   1.217e-09
                         Temperature (°C)  =  25.00
                  Electrical balance (eq)  =  -6.083e-10
 Percent error, 100*(Cat-|An|)/(Cat+|An|)  =  -0.00
                               Iterations  = 254
                                  Total H  = 5.550631e+01
                                  Total O  = 2.775325e+01

----------------------------Distribution of species----------------------------

                                               Log       Log       Log    mole V
   Species          Molality    Activity  Molality  Activity     Gamma   cm³/mol

   OH-             1.030e-07   1.014e-07    -6.987    -6.994    -0.007     -4.13
   H+              1.014e-07   9.985e-08    -6.994    -7.001    -0.007      0.00
   H2O             5.551e+01   1.000e+00     1.744    -0.000     0.000     18.07
Ca            4.800e-05
   Ca+2            4.764e-05   4.472e-05    -4.322    -4.350    -0.028    -18.20
   CaSO4           3.556e-07   3.556e-07    -6.449    -6.449     0.000      7.50
   CaOH+           7.552e-11   7.433e-11   -10.122   -10.129    -0.007     (0)  
   CaHSO4+         2.371e-13   2.334e-13   -12.625   -12.632    -0.007     (0)  
H(0)          0.000e+00
   H2              0.000e+00   0.000e+00   -40.533   -40.533     0.000     28.61
O(0)          9.726e-12
   O2              4.863e-12   4.863e-12   -11.313   -11.313     0.000     30.40
S(-2)         0.000e+00
   HS-             0.000e+00   0.000e+00  -127.227  -127.234    -0.007     20.59
   H2S             0.000e+00   0.000e+00  -127.293  -127.293     0.000     36.27
   S-2             0.000e+00   0.000e+00  -133.124  -133.151    -0.028     (0)  
   (H2S)2          0.000e+00   0.000e+00  -255.864  -255.864     0.000     30.09
S(6)          4.800e-05
   SO4-2           4.764e-05   4.471e-05    -4.322    -4.350    -0.028     14.94
   CaSO4           3.556e-07   3.556e-07    -6.449    -6.449     0.000      7.50
   HSO4-           4.410e-10   4.341e-10    -9.356    -9.362    -0.007     40.26
   CaHSO4+         2.371e-13   2.334e-13   -12.625   -12.632    -0.007     (0)  

------------------------------Saturation indices-------------------------------

  Phase               SI** log IAP   log K(298 K,   1 atm)

  Anhydrite        -4.42     -8.70   -4.28  CaSO4
  Gypsum           -4.12     -8.70   -4.58  CaSO4:2H2O
  H2(g)           -37.43    -40.53   -3.10  H2
  H2O(g)           -1.50     -0.00    1.50  H2O
  H2S(g)         -126.30   -134.23   -7.94  H2S
  O2(g)            -8.42    -11.31   -2.89  O2
  Sulfur          -94.79    -89.91    4.88  S

**For a gas, SI = log10(fugacity). Fugacity = pressure * phi / 1 atm.
  For ideal gases, phi = 1.

Reaction step 8.

Using solution 1.	Pure water
Using kinetics 1.	

Kinetics 1.	

	Time step: 20 seconds  (Incremented time: 50 seconds)

	Rate name       Delta Moles Total Moles   Reactant        Coefficient

	Gypsum           -1.600e-05   6.766e+00   Gypsum                    1

-----------------------------Solution composition------------------------------

	Elements           Molality       Moles

	Ca                7.999e-05   4.000e-05
	S                 7.999e-05   4.000e-05

----------------------------Description of solution----------------------------

                                       pH  =   7.001      Charge balance
                                       pe  =  11.691      Adjusted to redox equilibrium
      Specific Conductance (µS/cm,  25°C)  = 21
                          Density (g/cm³)  =   0.99705
                               Volume (L)  =   0.50148
                        Viscosity (mPa s)  =   0.89032
                        Activity of water  =   1.000
                 Ionic strength (mol/kgw)  =   3.163e-04
                       Mass of water (kg)  =   5.000e-01
                 Total alkalinity (eq/kg)  =   1.217e-09
                         Temperature (°C)  =  25.00
                  Electrical balance (eq)  =  -6.083e-10
 Percent error, 100*(Cat-|An|)/(Cat+|An|)  =  -0.00
                               Iterations  = 421
                                  Total H  = 5.550638e+01
                                  Total O  = 2.775335e+01

----------------------------Distribution of species----------------------------

                                               Log       Log       Log    mole V
   Species          Molality    Activity  Molality  Activity     Gamma   cm³/mol

   OH-             1.036e-07   1.015e-07    -6.985    -6.994    -0.009     -4.12
   H+              1.018e-07   9.975e-08    -6.992    -7.001    -0.009      0.00
   H2O             5.551e+01   1.000e+00     1.744    -0.000     0.000     18.07
Ca            7.999e-05
   Ca+2            7.905e-05   7.289e-05    -4.102    -4.137    -0.035    -18.19
   CaSO4           9.447e-07   9.448e-07    -6.025    -6.025     0.000      7.50
   CaOH+           1.238e-10   1.213e-10    -9.907    -9.916    -0.009     (0)  
   CaHSO4+         6.322e-13   6.195e-13   -12.199   -12.208    -0.009     (0)  
H(0)          0.000e+00
   H2              0.000e+00   0.000e+00   -40.534   -40.534     0.000     28.61
O(0)          9.768e-12
   O2              4.884e-12   4.885e-12   -11.311   -11.311     0.000     30.40
S(-2)         0.000e+00
   HS-             0.000e+00   0.000e+00  -127.017  -127.026    -0.009     20.59
   H2S             0.000e+00   0.000e+00  -127.086  -127.086     0.000     36.27
   S-2             0.000e+00   0.000e+00  -132.908  -132.943    -0.035     (0)  
   (H2S)2          0.000e+00   0.000e+00  -255.449  -255.449     0.000     30.09
S(6)          7.999e-05
   SO4-2           7.905e-05   7.288e-05    -4.102    -4.137    -0.035     15.09
   CaSO4           9.447e-07   9.448e-07    -6.025    -6.025     0.000      7.50
   HSO4-           7.214e-10   7.068e-10    -9.142    -9.151    -0.009     40.26
   CaHSO4+         6.322e-13   6.195e-13   -12.199   -12.208    -0.009     (0)  

------------------------------Saturation indices-------------------------------

  Phase               SI** log IAP   log K(298 K,   1 atm)

  Anhydrite        -4.00     -8.27   -4.28  CaSO4
  Gypsum           -3.69     -8.27   -4.58  CaSO4:2H2O
  H2(g)           -37.43    -40.53   -3.10  H2
  H2O(g)           -1.50     -0.00    1.50  H2O
  H2S(g)         -126.09   -134.03   -7.94  H2S
  O2(g)            -8.42    -11.31   -2.89  O2
  Sulfur          -94.58    -89.70    4.88  S

**For a gas, SI = log10(fugacity). Fugacity = pressure * phi / 1 atm.
  For ideal gases, phi = 1.

Reaction step 9.

Using solution 1.	Pure water
Using kinetics 1.	

Kinetics 1.	

	Time step: 30 seconds  (Incremented time: 80 seconds)

	Rate name       Delta Moles Total Moles   Reactant        Coefficient

	Gypsum           -2.399e-05   6.766e+00   Gypsum                    1

-----------------------------Solution composition------------------------------

	Elements           Molality       Moles

	Ca                1.280e-04   6.399e-05
	S                 1.280e-04   6.399e-05

----------------------------Description of solution----------------------------

                                       pH  =   7.002      Charge balance
                                       pe  =  11.691      Adjusted to redox equilibrium
      Specific Conductance (µS/cm,  25°C)  = 33
                          Density (g/cm³)  =   0.99706
                               Volume (L)  =   0.50149
                        Viscosity (mPa s)  =   0.89041
                        Activity of water  =   1.000
                 Ionic strength (mol/kgw)  =   5.028e-04
                       Mass of water (kg)  =   5.000e-01
                 Total alkalinity (eq/kg)  =   1.217e-09
                         Temperature (°C)  =  25.00
                  Electrical balance (eq)  =  -6.082e-10
 Percent error, 100*(Cat-|An|)/(Cat+|An|)  =  -0.00
                               Iterations  = 624
                                  Total H  = 5.550647e+01
                                  Total O  = 2.775349e+01

----------------------------Distribution of species----------------------------

                                               Log       Log       Log    mole V
   Species          Molality    Activity  Molality  Activity     Gamma   cm³/mol

   OH-             1.043e-07   1.016e-07    -6.982    -6.993    -0.011     -4.12
   H+              1.021e-07   9.961e-08    -6.991    -7.002    -0.011      0.00
   H2O             5.551e+01   1.000e+00     1.744    -0.000     0.000     18.07
Ca            1.280e-04
   Ca+2            1.257e-04   1.136e-04    -3.901    -3.945    -0.044    -18.17
   CaSO4           2.293e-06   2.293e-06    -5.640    -5.640     0.000      7.50
   CaOH+           1.941e-10   1.892e-10    -9.712    -9.723    -0.011     (0)  
   CaHSO4+         1.540e-12   1.501e-12   -11.812   -11.824    -0.011     (0)  
H(0)          0.000e+00
   H2              0.000e+00   0.000e+00   -40.535   -40.535     0.000     28.61
O(0)          9.812e-12
   O2              4.906e-12   4.907e-12   -11.309   -11.309     0.000     30.40
S(-2)         0.000e+00
   HS-             0.000e+00   0.000e+00  -126.827  -126.838    -0.011     20.59
   H2S             0.000e+00   0.000e+00  -126.898  -126.898     0.000     36.27
   S-2             0.000e+00   0.000e+00  -132.710  -132.754    -0.044     (0)  
   (H2S)2          0.000e+00   0.000e+00  -255.075  -255.075     0.000     30.09
S(6)          1.280e-04
   SO4-2           1.257e-04   1.135e-04    -3.901    -3.945    -0.044     15.26
   CaSO4           2.293e-06   2.293e-06    -5.640    -5.640     0.000      7.50
   HSO4-           1.128e-09   1.100e-09    -8.948    -8.959    -0.011     40.27
   CaHSO4+         1.540e-12   1.501e-12   -11.812   -11.824    -0.011     (0)  

------------------------------Saturation indices-------------------------------

  Phase               SI** log IAP   log K(298 K,   1 atm)

  Anhydrite        -3.61     -7.89   -4.28  CaSO4
  Gypsum           -3.31     -7.89   -4.58  CaSO4:2H2O
  H2(g)           -37.43    -40.54   -3.10  H2
  H2O(g)           -1.50     -0.00    1.50  H2O
  H2S(g)         -125.90   -133.84   -7.94  H2S
  O2(g)            -8.42    -11.31   -2.89  O2
  Sulfur          -94.39    -89.51    4.88  S

**For a gas, SI = log10(fugacity). Fugacity = pressure * phi / 1 atm.
  For ideal gases, phi = 1.

Reaction step 10.

Using solution 1.	Pure water
Using kinetics 1.	

Kinetics 1.	

	Time step: 50 seconds  (Incremented time: 130 seconds)

	Rate name       Delta Moles Total Moles   Reactant        Coefficient

	Gypsum           -3.997e-05   6.766e+00   Gypsum                    1

-----------------------------Solution composition------------------------------

	Elements           Molality       Moles

	Ca                2.079e-04   1.040e-04
	S                 2.079e-04   1.040e-04

----------------------------Description of solution----------------------------

                                       pH  =   7.003      Charge balance
                                       pe  =  11.690      Adjusted to redox equilibrium
      Specific Conductance (µS/cm,  25°C)  = 53
                          Density (g/cm³)  =   0.99707
                               Volume (L)  =   0.50149
                        Viscosity (mPa s)  =   0.89054
                        Activity of water  =   1.000
                 Ionic strength (mol/kgw)  =   8.092e-04
                       Mass of water (kg)  =   5.000e-01
                 Total alkalinity (eq/kg)  =   1.217e-09
                         Temperature (°C)  =  25.00
                  Electrical balance (eq)  =  -6.082e-10
 Percent error, 100*(Cat-|An|)/(Cat+|An|)  =  -0.00
                               Iterations  = 1044
                                  Total H  = 5.550663e+01
                                  Total O  = 2.775373e+01

----------------------------Distribution of species----------------------------

                                               Log       Log       Log    mole V
   Species          Molality    Activity  Molality  Activity     Gamma   cm³/mol

   OH-             1.052e-07   1.018e-07    -6.978    -6.992    -0.014     -4.11
   H+              1.025e-07   9.939e-08    -6.989    -7.003    -0.013      0.00
   H2O             5.551e+01   1.000e+00     1.744    -0.000     0.000     18.07
Ca            2.079e-04
   Ca+2            2.023e-04   1.781e-04    -3.694    -3.749    -0.055    -18.15
   CaSO4           5.636e-06   5.638e-06    -5.249    -5.249     0.000      7.50
   CaOH+           3.071e-10   2.974e-10    -9.513    -9.527    -0.014     (0)  
   CaHSO4+         3.803e-12   3.683e-12   -11.420   -11.434    -0.014     (0)  
H(0)          0.000e+00
   H2              0.000e+00   0.000e+00   -40.535   -40.535     0.000     28.61
O(0)          9.811e-12
   O2              4.905e-12   4.906e-12   -11.309   -11.309     0.000     30.40
S(-2)         0.000e+00
   HS-             0.000e+00   0.000e+00  -126.630  -126.644    -0.014     20.60
   H2S             0.000e+00   0.000e+00  -126.705  -126.705     0.000     36.27
   S-2             0.000e+00   0.000e+00  -132.504  -132.559    -0.055     (0)  
   (H2S)2          0.000e+00   0.000e+00  -254.688  -254.688     0.000     30.09
S(6)          2.079e-04
   SO4-2           2.023e-04   1.780e-04    -3.694    -3.750    -0.055     15.48
   CaSO4           5.636e-06   5.638e-06    -5.249    -5.249     0.000      7.50
   HSO4-           1.776e-09   1.720e-09    -8.750    -8.764    -0.014     40.27
   CaHSO4+         3.803e-12   3.683e-12   -11.420   -11.434    -0.014     (0)  

------------------------------Saturation indices-------------------------------

  Phase               SI** log IAP   log K(298 K,   1 atm)

  Anhydrite        -3.22     -7.50   -4.28  CaSO4
  Gypsum           -2.92     -7.50   -4.58  CaSO4:2H2O
  H2(g)           -37.43    -40.54   -3.10  H2
  H2O(g)           -1.50     -0.00    1.50  H2O
  H2S(g)         -125.71   -133.65   -7.94  H2S
  O2(g)            -8.42    -11.31   -2.89  O2
  Sulfur          -94.20    -89.32    4.88  S

**For a gas, SI = log10(fugacity). Fugacity = pressure * phi / 1 atm.
  For ideal gases, phi = 1.

Reaction step 11.

Using solution 1.	Pure water
Using kinetics 1.	

Kinetics 1.	

	Time step: 80 seconds  (Incremented time: 210 seconds)

	Rate name       Delta Moles Total Moles   Reactant        Coefficient

	Gypsum           -6.387e-05   6.766e+00   Gypsum                    1

-----------------------------Solution composition------------------------------

	Elements           Molality       Moles

	Ca                3.357e-04   1.678e-04
	S                 3.357e-04   1.678e-04

----------------------------Description of solution----------------------------

                                       pH  =   7.004      Charge balance
                                       pe  =  11.689      Adjusted to redox equilibrium
      Specific Conductance (µS/cm,  25°C)  = 85
                          Density (g/cm³)  =   0.99709
                               Volume (L)  =   0.50149
                        Viscosity (mPa s)  =   0.89072
                        Activity of water  =   1.000
                 Ionic strength (mol/kgw)  =   1.289e-03
                       Mass of water (kg)  =   5.000e-01
                 Total alkalinity (eq/kg)  =   1.216e-09
                         Temperature (°C)  =  25.00
                  Electrical balance (eq)  =  -6.082e-10
 Percent error, 100*(Cat-|An|)/(Cat+|An|)  =  -0.00
                               Iterations  = 1692
                                  Total H  = 5.550689e+01
                                  Total O  = 2.775412e+01

----------------------------Distribution of species----------------------------

                                               Log       Log       Log    mole V
   Species          Molality    Activity  Molality  Activity     Gamma   cm³/mol

   OH-             1.064e-07   1.022e-07    -6.973    -6.991    -0.018     -4.10
   H+              1.029e-07   9.905e-08    -6.988    -7.004    -0.017      0.00
   H2O             5.551e+01   1.000e+00     1.744    -0.000     0.000     18.07
Ca            3.357e-04
   Ca+2            3.222e-04   2.749e-04    -3.492    -3.561    -0.069    -18.13
   CaSO4           1.343e-05   1.343e-05    -4.872    -4.872     0.000      7.50
   CaOH+           4.795e-10   4.606e-10    -9.319    -9.337    -0.017     (0)  
   CaHSO4+         9.105e-12   8.746e-12   -11.041   -11.058    -0.017     (0)  
H(0)          0.000e+00
   H2              0.000e+00   0.000e+00   -40.536   -40.536     0.000     28.61
O(0)          9.845e-12
   O2              4.922e-12   4.924e-12   -11.308   -11.308     0.000     30.40
S(-2)         0.000e+00
   HS-             0.000e+00   0.000e+00  -126.442  -126.460    -0.018     20.61
   H2S             0.000e+00   0.000e+00  -126.522  -126.522     0.000     36.27
   S-2             0.000e+00   0.000e+00  -132.304  -132.374    -0.069     (0)  
   (H2S)2          0.000e+00   0.000e+00  -254.323  -254.323     0.000     30.09
S(6)          3.357e-04
   SO4-2           3.222e-04   2.747e-04    -3.492    -3.561    -0.069     15.75
   CaSO4           1.343e-05   1.343e-05    -4.872    -4.872     0.000      7.50
   HSO4-           2.755e-09   2.646e-09    -8.560    -8.577    -0.017     40.28
   CaHSO4+         9.105e-12   8.746e-12   -11.041   -11.058    -0.017     (0)  

------------------------------Saturation indices-------------------------------

  Phase               SI** log IAP   log K(298 K,   1 atm)

  Anhydrite        -2.84     -7.12   -4.28  CaSO4
  Gypsum           -2.54     -7.12   -4.58  CaSO4:2H2O
  H2(g)           -37.44    -40.54   -3.10  H2
  H2O(g)           -1.50     -0.00    1.50  H2O
  H2S(g)         -125.53   -133.46   -7.94  H2S
  O2(g)            -8.42    -11.31   -2.89  O2
  Sulfur          -94.02    -89.14    4.88  S

**For a gas, SI = log10(fugacity). Fugacity = pressure * phi / 1 atm.
  For ideal gases, phi = 1.

Reaction step 12.

Using solution 1.	Pure water
Using kinetics 1.	

Kinetics 1.	

	Time step: 100 seconds  (Incremented time: 310 seconds)

	Rate name       Delta Moles Total Moles   Reactant        Coefficient

	Gypsum           -7.966e-05   6.766e+00   Gypsum                    1

-----------------------------Solution composition------------------------------

	Elements           Molality       Moles

	Ca                4.950e-04   2.475e-04
	S                 4.950e-04   2.475e-04

----------------------------Description of solution----------------------------

                                       pH  =   7.006      Charge balance
                                       pe  =  11.687      Adjusted to redox equilibrium
      Specific Conductance (µS/cm,  25°C)  = 122
                          Density (g/cm³)  =   0.99711
                               Volume (L)  =   0.50149
                        Viscosity (mPa s)  =   0.89091
                        Activity of water  =   1.000
                 Ionic strength (mol/kgw)  =   1.873e-03
                       Mass of water (kg)  =   5.000e-01
                 Total alkalinity (eq/kg)  =   1.216e-09
                         Temperature (°C)  =  25.00
                  Electrical balance (eq)  =  -6.082e-10
 Percent error, 100*(Cat-|An|)/(Cat+|An|)  =  -0.00
                               Iterations  = 2112
                                  Total H  = 5.550721e+01
                                  Total O  = 2.775459e+01

----------------------------Distribution of species----------------------------

                                               Log       Log       Log    mole V
   Species          Molality    Activity  Molality  Activity     Gamma   cm³/mol

   OH-             1.077e-07   1.026e-07    -6.968    -6.989    -0.021     -4.10
   H+              1.032e-07   9.867e-08    -6.986    -7.006    -0.020      0.00
   H2O             5.551e+01   1.000e+00     1.744    -0.000     0.000     18.07
Ca            4.950e-04
   Ca+2            4.683e-04   3.876e-04    -3.329    -3.412    -0.082    -18.10
   CaSO4           2.668e-05   2.669e-05    -4.574    -4.574     0.000      7.50
   CaOH+           6.840e-10   6.519e-10    -9.165    -9.186    -0.021     (0)  
   CaHSO4+         1.816e-11   1.731e-11   -10.741   -10.762    -0.021     (0)  
H(0)          0.000e+00
   H2              0.000e+00   0.000e+00   -40.535   -40.535     0.000     28.61
O(0)          9.780e-12
   O2              4.890e-12   4.892e-12   -11.311   -11.310     0.000     30.40
S(-2)         0.000e+00
   HS-             0.000e+00   0.000e+00  -126.286  -126.307    -0.021     20.61
   H2S             0.000e+00   0.000e+00  -126.371  -126.371     0.000     36.27
   S-2             0.000e+00   0.000e+00  -132.137  -132.219    -0.082     (0)  
   (H2S)2          0.000e+00   0.000e+00  -254.020  -254.020     0.000     30.09
S(6)          4.950e-04
   SO4-2           4.683e-04   3.873e-04    -3.329    -3.412    -0.083     16.00
   CaSO4           2.668e-05   2.669e-05    -4.574    -4.574     0.000      7.50
   HSO4-           3.898e-09   3.715e-09    -8.409    -8.430    -0.021     40.29
   CaHSO4+         1.816e-11   1.731e-11   -10.741   -10.762    -0.021     (0)  

------------------------------Saturation indices-------------------------------

  Phase               SI** log IAP   log K(298 K,   1 atm)

  Anhydrite        -2.55     -6.82   -4.28  CaSO4
  Gypsum           -2.24     -6.82   -4.58  CaSO4:2H2O
  H2(g)           -37.43    -40.53   -3.10  H2
  H2O(g)           -1.50     -0.00    1.50  H2O
  H2S(g)         -125.38   -133.31   -7.94  H2S
  O2(g)            -8.42    -11.31   -2.89  O2
  Sulfur          -93.87    -88.99    4.88  S

**For a gas, SI = log10(fugacity). Fugacity = pressure * phi / 1 atm.
  For ideal gases, phi = 1.

Reaction step 13.

Using solution 1.	Pure water
Using kinetics 1.	

Kinetics 1.	

	Time step: 200 seconds  (Incremented time: 510 seconds)

	Rate name       Delta Moles Total Moles   Reactant        Coefficient

	Gypsum           -1.585e-04   6.765e+00   Gypsum                    1

-----------------------------Solution composition------------------------------

	Elements           Molality       Moles

	Ca                8.120e-04   4.060e-04
	S                 8.120e-04   4.060e-04

----------------------------Description of solution----------------------------

                                       pH  =   7.009      Charge balance
                                       pe  =  11.684      Adjusted to redox equilibrium
      Specific Conductance (µS/cm,  25°C)  = 194
                          Density (g/cm³)  =   0.99715
                               Volume (L)  =   0.50150
                        Viscosity (mPa s)  =   0.89124
                        Activity of water  =   1.000
                 Ionic strength (mol/kgw)  =   2.999e-03
                       Mass of water (kg)  =   5.000e-01
                 Total alkalinity (eq/kg)  =   1.216e-09
                         Temperature (°C)  =  25.00
                  Electrical balance (eq)  =  -6.082e-10
 Percent error, 100*(Cat-|An|)/(Cat+|An|)  =  -0.00
                               Iterations  = 4212
                                  Total H  = 5.550784e+01
                                  Total O  = 2.775554e+01

----------------------------Distribution of species----------------------------

                                               Log       Log       Log    mole V
   Species          Molality    Activity  Molality  Activity     Gamma   cm³/mol

   OH-             1.097e-07   1.033e-07    -6.960    -6.986    -0.026     -4.08
   H+              1.036e-07   9.798e-08    -6.985    -7.009    -0.024      0.00
   H2O             5.551e+01   1.000e+00     1.744    -0.000     0.000     18.07
Ca            8.120e-04
   Ca+2            7.496e-04   5.927e-04    -3.125    -3.227    -0.102    -18.06
   CaSO4           6.234e-05   6.238e-05    -4.205    -4.205     0.000      7.50
   CaOH+           1.066e-09   1.004e-09    -8.972    -8.998    -0.026     (0)  
   CaHSO4+         4.266e-11   4.018e-11   -10.370   -10.396    -0.026     (0)  
H(0)          0.000e+00
   H2              0.000e+00   0.000e+00   -40.537   -40.536     0.000     28.61
O(0)          9.852e-12
   O2              4.926e-12   4.929e-12   -11.308   -11.307     0.000     30.40
S(-2)         0.000e+00
   HS-             0.000e+00   0.000e+00  -126.106  -126.132    -0.026     20.62
   H2S             0.000e+00   0.000e+00  -126.200  -126.199     0.000     36.27
   S-2             0.000e+00   0.000e+00  -131.939  -132.041    -0.102     (0)  
   (H2S)2          0.000e+00   0.000e+00  -253.677  -253.677     0.000     30.09
S(6)          8.120e-04
   SO4-2           7.496e-04   5.919e-04    -3.125    -3.228    -0.103     16.40
   CaSO4           6.234e-05   6.238e-05    -4.205    -4.205     0.000      7.50
   HSO4-           5.986e-09   5.638e-09    -8.223    -8.249    -0.026     40.30
   CaHSO4+         4.266e-11   4.018e-11   -10.370   -10.396    -0.026     (0)  

------------------------------Saturation indices-------------------------------

  Phase               SI** log IAP   log K(298 K,   1 atm)

  Anhydrite        -2.18     -6.45   -4.28  CaSO4
  Gypsum           -1.87     -6.45   -4.58  CaSO4:2H2O
  H2(g)           -37.44    -40.54   -3.10  H2
  H2O(g)           -1.50     -0.00    1.50  H2O
  H2S(g)         -125.20   -133.14   -7.94  H2S
  O2(g)            -8.41    -11.31   -2.89  O2
  Sulfur          -93.69    -88.81    4.88  S

**For a gas, SI = log10(fugacity). Fugacity = pressure * phi / 1 atm.
  For ideal gases, phi = 1.

Reaction step 14.

Using solution 1.	Pure water
Using kinetics 1.	

Kinetics 1.	

	Time step: 300 seconds  (Incremented time: 810 seconds)

	Rate name       Delta Moles Total Moles   Reactant        Coefficient

	Gypsum           -2.350e-04   6.765e+00   Gypsum                    1

-----------------------------Solution composition------------------------------

	Elements           Molality       Moles

	Ca                1.282e-03   6.410e-04
	S                 1.282e-03   6.410e-04

----------------------------Description of solution----------------------------

                                       pH  =   7.013      Charge balance
                                       pe  =  11.678      Adjusted to redox equilibrium
      Specific Conductance (µS/cm,  25°C)  = 294
                          Density (g/cm³)  =   0.99722
                               Volume (L)  =   0.50151
                        Viscosity (mPa s)  =   0.89165
                        Activity of water  =   1.000
                 Ionic strength (mol/kgw)  =   4.598e-03
                       Mass of water (kg)  =   5.000e-01
                 Total alkalinity (eq/kg)  =   1.216e-09
                         Temperature (°C)  =  25.00
                  Electrical balance (eq)  =  -6.081e-10
 Percent error, 100*(Cat-|An|)/(Cat+|An|)  =  -0.00
                               Iterations  = 6233
                                  Total H  = 5.550878e+01
                                  Total O  = 2.775695e+01

----------------------------Distribution of species----------------------------

                                               Log       Log       Log    mole V
   Species          Molality    Activity  Molality  Activity     Gamma   cm³/mol

   OH-             1.122e-07   1.042e-07    -6.950    -6.982    -0.032     -4.07
   H+              1.038e-07   9.709e-08    -6.984    -7.013    -0.029      0.00
   H2O             5.551e+01   1.000e+00     1.744    -0.000     0.000     18.07
Ca            1.282e-03
   Ca+2            1.150e-03   8.646e-04    -2.939    -3.063    -0.124    -18.02
   CaSO4           1.325e-04   1.326e-04    -3.878    -3.877     0.000      7.50
   CaOH+           1.590e-09   1.478e-09    -8.799    -8.830    -0.032     (0)  
   CaHSO4+         9.105e-11   8.465e-11   -10.041   -10.072    -0.032     (0)  
H(0)          0.000e+00
   H2              0.000e+00   0.000e+00   -40.533   -40.532     0.000     28.61
O(0)          9.663e-12
   O2              4.832e-12   4.837e-12   -11.316   -11.315     0.000     30.40
S(-2)         0.000e+00
   HS-             0.000e+00   0.000e+00  -125.924  -125.956    -0.032     20.64
   H2S             0.000e+00   0.000e+00  -126.028  -126.027     0.000     36.27
   S-2             0.000e+00   0.000e+00  -131.737  -131.861    -0.124     (0)  
   (H2S)2          0.000e+00   0.000e+00  -253.333  -253.333     0.000     30.09
S(6)          1.282e-03
   SO4-2           1.149e-03   8.627e-04    -2.939    -3.064    -0.125     16.84
   CaSO4           1.325e-04   1.326e-04    -3.878    -3.877     0.000      7.50
   HSO4-           8.760e-09   8.144e-09    -8.057    -8.089    -0.032     40.31
   CaHSO4+         9.105e-11   8.465e-11   -10.041   -10.072    -0.032     (0)  

------------------------------Saturation indices-------------------------------

  Phase               SI** log IAP   log K(298 K,   1 atm)

  Anhydrite        -1.85     -6.13   -4.28  CaSO4
  Gypsum           -1.55     -6.13   -4.58  CaSO4:2H2O
  H2(g)           -37.43    -40.53   -3.10  H2
  H2O(g)           -1.50     -0.00    1.50  H2O
  H2S(g)         -125.03   -132.97   -7.94  H2S
  O2(g)            -8.42    -11.32   -2.89  O2
  Sulfur          -93.53    -88.64    4.88  S

**For a gas, SI = log10(fugacity). Fugacity = pressure * phi / 1 atm.
  For ideal gases, phi = 1.

Reaction step 15.

Using solution 1.	Pure water
Using kinetics 1.	

Kinetics 1.	

	Time step: 500 seconds  (Incremented time: 1310 seconds)

	Rate name       Delta Moles Total Moles   Reactant        Coefficient

	Gypsum           -3.825e-04   6.765e+00   Gypsum                    1

-----------------------------Solution composition------------------------------

	Elements           Molality       Moles

	Ca                2.047e-03   1.024e-03
	S                 2.047e-03   1.024e-03

----------------------------Description of solution----------------------------

                                       pH  =   7.018      Charge balance
                                       pe  =  11.669      Adjusted to redox equilibrium
      Specific Conductance (µS/cm,  25°C)  = 446
                          Density (g/cm³)  =   0.99732
                               Volume (L)  =   0.50152
                        Viscosity (mPa s)  =   0.89224
                        Activity of water  =   1.000
                 Ionic strength (mol/kgw)  =   7.076e-03
                       Mass of water (kg)  =   5.000e-01
                 Total alkalinity (eq/kg)  =   1.216e-09
                         Temperature (°C)  =  25.00
                  Electrical balance (eq)  =  -6.081e-10
 Percent error, 100*(Cat-|An|)/(Cat+|An|)  =  -0.00
                               Iterations  = 9169
                                  Total H  = 5.551031e+01
                                  Total O  = 2.775925e+01

----------------------------Distribution of species----------------------------

                                               Log       Log       Log    mole V
   Species          Molality    Activity  Molality  Activity     Gamma   cm³/mol

   OH-             1.155e-07   1.056e-07    -6.937    -6.976    -0.039     -4.05
   H+              1.038e-07   9.587e-08    -6.984    -7.018    -0.034      0.00
   H2O             5.551e+01   9.999e-01     1.744    -0.000     0.000     18.07
Ca            2.047e-03
   Ca+2            1.769e-03   1.253e-03    -2.752    -2.902    -0.150    -17.97
   CaSO4           2.780e-04   2.785e-04    -3.556    -3.555     0.001      7.50
   CaOH+           2.371e-09   2.170e-09    -8.625    -8.664    -0.038     (0)  
   CaHSO4+         1.917e-10   1.755e-10    -9.717    -9.756    -0.038     (0)  
H(0)          0.000e+00
   H2              0.000e+00   0.000e+00   -40.526   -40.525     0.001     28.61
O(0)          9.339e-12
   O2              4.670e-12   4.677e-12   -11.331   -11.330     0.001     30.40
S(-2)         0.000e+00
   HS-             0.000e+00   0.000e+00  -125.733  -125.772    -0.039     20.65
   H2S             0.000e+00   0.000e+00  -125.849  -125.848     0.001     36.27
   S-2             0.000e+00   0.000e+00  -131.521  -131.671    -0.151     (0)  
   (H2S)2          0.000e+00   0.000e+00  -252.976  -252.975     0.001     30.09
S(6)          2.047e-03
   SO4-2           1.769e-03   1.249e-03    -2.752    -2.903    -0.151     17.38
   CaSO4           2.780e-04   2.785e-04    -3.556    -3.555     0.001      7.50
   HSO4-           1.272e-08   1.164e-08    -7.895    -7.934    -0.038     40.33
   CaHSO4+         1.917e-10   1.755e-10    -9.717    -9.756    -0.038     (0)  

------------------------------Saturation indices-------------------------------

  Phase               SI** log IAP   log K(298 K,   1 atm)

  Anhydrite        -1.53     -5.81   -4.28  CaSO4
  Gypsum           -1.22     -5.81   -4.58  CaSO4:2H2O
  H2(g)           -37.42    -40.53   -3.10  H2
  H2O(g)           -1.50     -0.00    1.50  H2O
  H2S(g)         -124.85   -132.79   -7.94  H2S
  O2(g)            -8.44    -11.33   -2.89  O2
  Sulfur          -93.36    -88.47    4.88  S

**For a gas, SI = log10(fugacity). Fugacity = pressure * phi / 1 atm.
  For ideal gases, phi = 1.

Reaction step 16.

Using solution 1.	Pure water
Using kinetics 1.	

Kinetics 1.	

	Time step: 800 seconds  (Incremented time: 2110 seconds)

	Rate name       Delta Moles Total Moles   Reactant        Coefficient

	Gypsum           -5.833e-04   6.764e+00   Gypsum                    1

-----------------------------Solution composition------------------------------

	Elements           Molality       Moles

	Ca                3.213e-03   1.607e-03
	S                 3.213e-03   1.607e-03

----------------------------Description of solution----------------------------

                                       pH  =   7.025      Charge balance
                                       pe  =  11.661      Adjusted to redox equilibrium
      Specific Conductance (µS/cm,  25°C)  = 664
                          Density (g/cm³)  =   0.99747
                               Volume (L)  =   0.50154
                        Viscosity (mPa s)  =   0.89302
                        Activity of water  =   1.000
                 Ionic strength (mol/kgw)  =   1.065e-02
                       Mass of water (kg)  =   5.001e-01
                 Total alkalinity (eq/kg)  =   1.216e-09
                         Temperature (°C)  =  25.00
                  Electrical balance (eq)  =  -6.081e-10
 Percent error, 100*(Cat-|An|)/(Cat+|An|)  =  -0.00
                               Iterations  = 12951
                                  Total H  = 5.551264e+01
                                  Total O  = 2.776275e+01

----------------------------Distribution of species----------------------------

                                               Log       Log       Log    mole V
   Species          Molality    Activity  Molality  Activity     Gamma   cm³/mol

   OH-             1.196e-07   1.073e-07    -6.922    -6.969    -0.047     -4.03
   H+              1.035e-07   9.433e-08    -6.985    -7.025    -0.040      0.00
   H2O             5.551e+01   9.999e-01     1.744    -0.000     0.000     18.07
Ca            3.213e-03
   Ca+2            2.663e-03   1.766e-03    -2.575    -2.753    -0.178    -17.92
   CaSO4           5.506e-04   5.520e-04    -3.259    -3.258     0.001      7.50
   CaOH+           3.455e-09   3.107e-09    -8.462    -8.508    -0.046     (0)  
   CaHSO4+         3.805e-10   3.422e-10    -9.420    -9.466    -0.046     (0)  
H(0)          0.000e+00
   H2              0.000e+00   0.000e+00   -40.523   -40.522     0.001     28.61
O(0)          9.191e-12
   O2              4.595e-12   4.607e-12   -11.338   -11.337     0.001     30.40
S(-2)         0.000e+00
   HS-             0.000e+00   0.000e+00  -125.570  -125.617    -0.047     20.67
   H2S             0.000e+00   0.000e+00  -125.702  -125.701     0.001     36.27
   S-2             0.000e+00   0.000e+00  -131.330  -131.510    -0.180     (0)  
   (H2S)2          0.000e+00   0.000e+00  -252.681  -252.680     0.001     30.09
S(6)          3.213e-03
   SO4-2           2.663e-03   1.757e-03    -2.575    -2.755    -0.180     17.99
   CaSO4           5.506e-04   5.520e-04    -3.259    -3.258     0.001      7.50
   HSO4-           1.792e-08   1.612e-08    -7.747    -7.793    -0.046     40.34
   CaHSO4+         3.805e-10   3.422e-10    -9.420    -9.466    -0.046     (0)  

------------------------------Saturation indices-------------------------------

  Phase               SI** log IAP   log K(298 K,   1 atm)

  Anhydrite        -1.23     -5.51   -4.28  CaSO4
  Gypsum           -0.93     -5.51   -4.58  CaSO4:2H2O
  H2(g)           -37.42    -40.52   -3.10  H2
  H2O(g)           -1.50     -0.00    1.50  H2O
  H2S(g)         -124.71   -132.64   -7.94  H2S
  O2(g)            -8.44    -11.34   -2.89  O2
  Sulfur          -93.21    -88.33    4.88  S

**For a gas, SI = log10(fugacity). Fugacity = pressure * phi / 1 atm.
  For ideal gases, phi = 1.

Reaction step 17.

Using solution 1.	Pure water
Using kinetics 1.	

Kinetics 1.	

	Time step: 1000 seconds  (Incremented time: 3110 seconds)

	Rate name       Delta Moles Total Moles   Reactant        Coefficient

	Gypsum           -6.736e-04   6.764e+00   Gypsum                    1

-----------------------------Solution composition------------------------------

	Elements           Molality       Moles

	Ca                4.560e-03   2.280e-03
	S                 4.560e-03   2.280e-03

----------------------------Description of solution----------------------------

                                       pH  =   7.032      Charge balance
                                       pe  =  11.654      Adjusted to redox equilibrium
      Specific Conductance (µS/cm,  25°C)  = 899
                          Density (g/cm³)  =   0.99765
                               Volume (L)  =   0.50157
                        Viscosity (mPa s)  =   0.89381
                        Activity of water  =   1.000
                 Ionic strength (mol/kgw)  =   1.457e-02
                       Mass of water (kg)  =   5.001e-01
                 Total alkalinity (eq/kg)  =   1.216e-09
                         Temperature (°C)  =  25.00
                  Electrical balance (eq)  =  -6.081e-10
 Percent error, 100*(Cat-|An|)/(Cat+|An|)  =  -0.00
                               Iterations  = 14067
                                  Total H  = 5.551534e+01
                                  Total O  = 2.776679e+01

----------------------------Distribution of species----------------------------

                                               Log       Log       Log    mole V
   Species          Molality    Activity  Molality  Activity     Gamma   cm³/mol

   OH-             1.234e-07   1.090e-07    -6.909    -6.963    -0.054     -4.01
   H+              1.031e-07   9.286e-08    -6.987    -7.032    -0.045      0.00
   H2O             5.551e+01   9.999e-01     1.744    -0.000     0.000     18.07
Ca            4.560e-03
   Ca+2            3.643e-03   2.282e-03    -2.439    -2.642    -0.203    -17.87
   CaSO4           9.168e-04   9.199e-04    -3.038    -3.036     0.001      7.50
   CaOH+           4.605e-09   4.078e-09    -8.337    -8.390    -0.053     (0)  
   CaHSO4+         6.340e-10   5.615e-10    -9.198    -9.251    -0.053     (0)  
H(0)          0.000e+00
   H2              0.000e+00   0.000e+00   -40.523   -40.522     0.001     28.61
O(0)          9.187e-12
   O2              4.593e-12   4.609e-12   -11.338   -11.336     0.001     30.40
S(-2)         0.000e+00
   HS-             0.000e+00   0.000e+00  -125.460  -125.514    -0.054     20.69
   H2S             0.000e+00   0.000e+00  -125.606  -125.604     0.001     36.27
   S-2             0.000e+00   0.000e+00  -131.194  -131.400    -0.206     (0)  
   (H2S)2          0.000e+00   0.000e+00  -252.489  -252.487     0.001     30.09
S(6)          4.560e-03
   SO4-2           3.643e-03   2.267e-03    -2.439    -2.645    -0.206     18.55
   CaSO4           9.168e-04   9.199e-04    -3.038    -3.036     0.001      7.50
   HSO4-           2.310e-08   2.046e-08    -7.636    -7.689    -0.053     40.36
   CaHSO4+         6.340e-10   5.615e-10    -9.198    -9.251    -0.053     (0)  

------------------------------Saturation indices-------------------------------

  Phase               SI** log IAP   log K(298 K,   1 atm)

  Anhydrite        -1.01     -5.29   -4.28  CaSO4
  Gypsum           -0.70     -5.29   -4.58  CaSO4:2H2O
  H2(g)           -37.42    -40.52   -3.10  H2
  H2O(g)           -1.50     -0.00    1.50  H2O
  H2S(g)         -124.61   -132.55   -7.94  H2S
  O2(g)            -8.44    -11.34   -2.89  O2
  Sulfur          -93.11    -88.23    4.88  S

**For a gas, SI = log10(fugacity). Fugacity = pressure * phi / 1 atm.
  For ideal gases, phi = 1.

Reaction step 18.

Using solution 1.	Pure water
Using kinetics 1.	

Kinetics 1.	

	Time step: 2000 seconds  (Incremented time: 5110 seconds)

	Rate name       Delta Moles Total Moles   Reactant        Coefficient

	Gypsum           -1.158e-03   6.762e+00   Gypsum                    1

-----------------------------Solution composition------------------------------

	Elements           Molality       Moles

	Ca                6.876e-03   3.439e-03
	S                 6.876e-03   3.439e-03

----------------------------Description of solution----------------------------

                                       pH  =   7.042      Charge balance
                                       pe  =  11.648      Adjusted to redox equilibrium
      Specific Conductance (µS/cm,  25°C)  = 1279
                          Density (g/cm³)  =   0.99796
                               Volume (L)  =   0.50162
                        Viscosity (mPa s)  =   0.89502
                        Activity of water  =   1.000
                 Ionic strength (mol/kgw)  =   2.098e-02
                       Mass of water (kg)  =   5.001e-01
                 Total alkalinity (eq/kg)  =   1.216e-09
                         Temperature (°C)  =  25.00
                  Electrical balance (eq)  =  -7.098e-10
 Percent error, 100*(Cat-|An|)/(Cat+|An|)  =  -0.00
                               Iterations  = 20568
                                  Total H  = 5.551997e+01
                                  Total O  = 2.777374e+01

----------------------------Distribution of species----------------------------

                                               Log       Log       Log    mole V
   Species          Molality    Activity  Molality  Activity     Gamma   cm³/mol

   OH-             1.289e-07   1.114e-07    -6.890    -6.953    -0.063     -3.98
   H+              1.023e-07   9.081e-08    -6.990    -7.042    -0.052      0.00
   H2O             5.551e+01   9.998e-01     1.744    -0.000     0.000     18.07
Ca            6.876e-03
   Ca+2            5.244e-03   3.051e-03    -2.280    -2.516    -0.235    -17.81
   CaSO4           1.631e-03   1.639e-03    -2.787    -2.785     0.002      7.50
   CaOH+           6.420e-09   5.575e-09    -8.192    -8.254    -0.061     (0)  
   CaHSO4+         1.127e-09   9.784e-10    -8.948    -9.009    -0.061     (0)  
H(0)          0.000e+00
   H2              0.000e+00   0.000e+00   -40.532   -40.530     0.002     28.61
O(0)          9.509e-12
   O2              4.754e-12   4.778e-12   -11.323   -11.321     0.002     30.40
S(-2)         0.000e+00
   HS-             0.000e+00   0.000e+00  -125.367  -125.430    -0.063     20.71
   H2S             0.000e+00   0.000e+00  -125.532  -125.530     0.002     36.27
   S-2             0.000e+00   0.000e+00  -131.068  -131.306    -0.239     (0)  
   (H2S)2          0.000e+00   0.000e+00  -252.341  -252.339     0.002     30.09
S(6)          6.876e-03
   SO4-2           5.244e-03   3.021e-03    -2.280    -2.520    -0.240     19.31
   CaSO4           1.631e-03   1.639e-03    -2.787    -2.785     0.002      7.50
   HSO4-           3.072e-08   2.667e-08    -7.513    -7.574    -0.061     40.38
   CaHSO4+         1.127e-09   9.784e-10    -8.948    -9.009    -0.061     (0)  

------------------------------Saturation indices-------------------------------

  Phase               SI** log IAP   log K(298 K,   1 atm)

  Anhydrite        -0.76     -5.04   -4.28  CaSO4
  Gypsum           -0.45     -5.04   -4.58  CaSO4:2H2O
  H2(g)           -37.43    -40.53   -3.10  H2
  H2O(g)           -1.50     -0.00    1.50  H2O
  H2S(g)         -124.54   -132.47   -7.94  H2S
  O2(g)            -8.43    -11.32   -2.89  O2
  Sulfur          -93.03    -88.15    4.88  S

**For a gas, SI = log10(fugacity). Fugacity = pressure * phi / 1 atm.
  For ideal gases, phi = 1.

Reaction step 19.

Using solution 1.	Pure water
Using kinetics 1.	

Kinetics 1.	

	Time step: 3000 seconds  (Incremented time: 8110 seconds)

	Rate name       Delta Moles Total Moles   Reactant        Coefficient

	Gypsum           -1.311e-03   6.761e+00   Gypsum                    1

-----------------------------Solution composition------------------------------

	Elements           Molality       Moles

	Ca                9.497e-03   4.750e-03
	S                 9.497e-03   4.750e-03

----------------------------Description of solution----------------------------

                                       pH  =   7.051      Charge balance
                                       pe  =  11.644      Adjusted to redox equilibrium
      Specific Conductance (µS/cm,  25°C)  = 1684
                          Density (g/cm³)  =   0.99830
                               Volume (L)  =   0.50167
                        Viscosity (mPa s)  =   0.89625
                        Activity of water  =   1.000
                 Ionic strength (mol/kgw)  =   2.788e-02
                       Mass of water (kg)  =   5.002e-01
                 Total alkalinity (eq/kg)  =   1.216e-09
                         Temperature (°C)  =  25.00
                  Electrical balance (eq)  =  -1.755e-09
 Percent error, 100*(Cat-|An|)/(Cat+|An|)  =  -0.00
                               Iterations  = 17485
                                  Total H  = 5.552522e+01
                                  Total O  = 2.778161e+01

----------------------------Distribution of species----------------------------

                                               Log       Log       Log    mole V
   Species          Molality    Activity  Molality  Activity     Gamma   cm³/mol

   OH-             1.341e-07   1.138e-07    -6.873    -6.944    -0.071     -3.95
   H+              1.014e-07   8.894e-08    -6.994    -7.051    -0.057      0.00
   H2O             5.551e+01   9.997e-01     1.744    -0.000     0.000     18.07
Ca            9.497e-03
   Ca+2            6.970e-03   3.806e-03    -2.157    -2.419    -0.263    -17.75
   CaSO4           2.527e-03   2.543e-03    -2.597    -2.595     0.003      7.50
   CaOH+           8.318e-09   7.101e-09    -8.080    -8.149    -0.069     (0)  
   CaHSO4+         1.741e-09   1.487e-09    -8.759    -8.828    -0.069     (0)  
H(0)          0.000e+00
   H2              0.000e+00   0.000e+00   -40.543   -40.540     0.003     28.61
O(0)          9.956e-12
   O2              4.978e-12   5.010e-12   -11.303   -11.300     0.003     30.40
S(-2)         0.000e+00
   HS-             0.000e+00   0.000e+00  -125.314  -125.386    -0.071     20.73
   H2S             0.000e+00   0.000e+00  -125.498  -125.495     0.003     36.27
   S-2             0.000e+00   0.000e+00  -130.986  -131.253    -0.267     (0)  
   (H2S)2          0.000e+00   0.000e+00  -252.271  -252.268     0.003     30.09
S(6)          9.497e-03
   SO4-2           6.970e-03   3.757e-03    -2.157    -2.425    -0.268     20.00
   CaSO4           2.527e-03   2.543e-03    -2.597    -2.595     0.003      7.50
   HSO4-           3.805e-08   3.248e-08    -7.420    -7.488    -0.069     40.40
   CaHSO4+         1.741e-09   1.487e-09    -8.759    -8.828    -0.069     (0)  

------------------------------Saturation indices-------------------------------

  Phase               SI** log IAP   log K(298 K,   1 atm)

  Anhydrite        -0.57     -4.84   -4.28  CaSO4
  Gypsum           -0.26     -4.84   -4.58  CaSO4:2H2O
  H2(g)           -37.44    -40.54   -3.10  H2
  H2O(g)           -1.50     -0.00    1.50  H2O
  H2S(g)         -124.50   -132.44   -7.94  H2S
  O2(g)            -8.41    -11.30   -2.89  O2
  Sulfur          -92.99    -88.10    4.88  S

**For a gas, SI = log10(fugacity). Fugacity = pressure * phi / 1 atm.
  For ideal gases, phi = 1.

Reaction step 20.

Using solution 1.	Pure water
Using kinetics 1.	

Kinetics 1.	

	Time step: 5000 seconds  (Incremented time: 13110 seconds)

	Rate name       Delta Moles Total Moles   Reactant        Coefficient

	Gypsum           -1.346e-03   6.760e+00   Gypsum                    1

-----------------------------Solution composition------------------------------

	Elements           Molality       Moles

	Ca                1.219e-02   6.096e-03
	S                 1.219e-02   6.096e-03

----------------------------Description of solution----------------------------

                                       pH  =   7.059      Charge balance
                                       pe  =  11.640      Adjusted to redox equilibrium
      Specific Conductance (µS/cm,  25°C)  = 2080
                          Density (g/cm³)  =   0.99865
                               Volume (L)  =   0.50173
                        Viscosity (mPa s)  =   0.89740
                        Activity of water  =   1.000
                 Ionic strength (mol/kgw)  =   3.470e-02
                       Mass of water (kg)  =   5.002e-01
                 Total alkalinity (eq/kg)  =   1.216e-09
                         Temperature (°C)  =  25.00
                  Electrical balance (eq)  =  -2.750e-09
 Percent error, 100*(Cat-|An|)/(Cat+|An|)  =  -0.00
                               Iterations  = 17942
                                  Total H  = 5.553060e+01
                                  Total O  = 2.778968e+01

----------------------------Distribution of species----------------------------

                                               Log       Log       Log    mole V
   Species          Molality    Activity  Molality  Activity     Gamma   cm³/mol

   OH-             1.387e-07   1.158e-07    -6.858    -6.936    -0.078     -3.92
   H+              1.006e-07   8.735e-08    -6.997    -7.059    -0.061      0.00
   H2O             5.551e+01   9.996e-01     1.744    -0.000     0.000     18.07
Ca            1.219e-02
   Ca+2            8.675e-03   4.498e-03    -2.062    -2.347    -0.285    -17.70
   CaSO4           3.511e-03   3.539e-03    -2.455    -2.451     0.003      7.50
   CaOH+           1.015e-08   8.543e-09    -7.994    -8.068    -0.075     (0)  
   CaHSO4+         2.414e-09   2.032e-09    -8.617    -8.692    -0.075     (0)  
H(0)          0.000e+00
   H2              0.000e+00   0.000e+00   -40.550   -40.547     0.003     28.61
O(0)          1.026e-11
   O2              5.129e-12   5.170e-12   -11.290   -11.287     0.003     30.40
S(-2)         0.000e+00
   HS-             0.000e+00   0.000e+00  -125.272  -125.350    -0.078     20.75
   H2S             0.000e+00   0.000e+00  -125.470  -125.467     0.003     36.27
[...]

------------------------------Saturation indices-------------------------------

  Phase               SI** log IAP   log K(298 K,   1 atm)

  Anhydrite        -0.31     -4.59   -4.28  CaSO4
  Gypsum           -0.01     -4.59   -4.58  CaSO4:2H2O
  H2(g)           -37.44    -40.55   -3.10  H2
  H2O(g)           -1.50     -0.00    1.50  H2O
  H2S(g)         -124.42   -132.36   -7.94  H2S
  O2(g)            -8.40    -11.29   -2.89  O2
  Sulfur          -92.91    -88.02    4.88  S

**For a gas, SI = log10(fugacity). Fugacity = pressure * phi / 1 atm.
  For ideal gases, phi = 1.

Reaction step 23.

Using solution 1.	Pure water
Using kinetics 1.	

Kinetics 1.	

	Time step: 20000 seconds  (Incremented time: 51110 seconds)

	Rate name       Delta Moles Total Moles   Reactant        Coefficient

	Gypsum           -1.159e-04   6.758e+00   Gypsum                    1

-----------------------------Solution composition------------------------------

	Elements           Molality       Moles

	Ca                1.503e-02   7.519e-03
	S                 1.503e-02   7.519e-03

----------------------------Description of solution----------------------------

                                       pH  =   7.066      Charge balance
                                       pe  =  11.631      Adjusted to redox equilibrium
      Specific Conductance (µS/cm,  25°C)  = 2483
                          Density (g/cm³)  =   0.99901
                               Volume (L)  =   0.50179
                        Viscosity (mPa s)  =   0.89854
                        Activity of water  =   1.000
                 Ionic strength (mol/kgw)  =   4.170e-02
                       Mass of water (kg)  =   5.003e-01
                 Total alkalinity (eq/kg)  =   1.215e-09
                         Temperature (°C)  =  25.00
                  Electrical balance (eq)  =  -3.740e-09
 Percent error, 100*(Cat-|An|)/(Cat+|An|)  =  -0.00
                               Iterations  = 1554
                                  Total H  = 5.553629e+01
                                  Total O  = 2.779822e+01

----------------------------Distribution of species----------------------------

                                               Log       Log       Log    mole V
   Species          Molality    Activity  Molality  Activity     Gamma   cm³/mol

   OH-             1.430e-07   1.178e-07    -6.845    -6.929    -0.084     -3.90
   H+              9.977e-08   8.591e-08    -7.001    -7.066    -0.065      0.00
   H2O             5.551e+01   9.996e-01     1.744    -0.000     0.000     18.07
Ca            1.503e-02
   Ca+2            1.042e-02   5.164e-03    -1.982    -2.287    -0.305    -17.66
   CaSO4           4.605e-03   4.649e-03    -2.337    -2.333     0.004      7.50
   CaOH+           1.199e-08   9.971e-09    -7.921    -8.001    -0.080     (0)  
   CaHSO4+         3.157e-09   2.626e-09    -8.501    -8.581    -0.080     (0)  
H(0)          0.000e+00
   H2              0.000e+00   0.000e+00   -40.549   -40.545     0.004     28.61
O(0)          1.014e-11
   O2              5.068e-12   5.117e-12   -11.295   -11.291     0.004     30.40
S(-2)         0.000e+00
   HS-             0.000e+00   0.000e+00  -125.205  -125.290    -0.084     20.77
   H2S             0.000e+00   0.000e+00  -125.418  -125.414     0.004     36.27
   S-2             0.000e+00   0.000e+00  -130.830  -131.142    -0.312     (0)  
   (H2S)2          0.000e+00   0.000e+00  -252.110  -252.106     0.004     30.09
S(6)          1.503e-02
   SO4-2           1.042e-02   5.063e-03    -1.982    -2.296    -0.314     21.13
   CaSO4           4.605e-03   4.649e-03    -2.337    -2.333     0.004      7.50
   HSO4-           5.086e-08   4.229e-08    -7.294    -7.374    -0.080     40.44
   CaHSO4+         3.157e-09   2.626e-09    -8.501    -8.581    -0.080     (0)  

------------------------------Saturation indices-------------------------------

  Phase               SI** log IAP   log K(298 K,   1 atm)

  Anhydrite        -0.31     -4.58   -4.28  CaSO4
  Gypsum           -0.00     -4.58   -4.58  CaSO4:2H2O
  H2(g)           -37.44    -40.54   -3.10  H2
  H2O(g)           -1.50     -0.00    1.50  H2O
  H2S(g)         -124.42   -132.36   -7.94  H2S
  O2(g)            -8.40    -11.29   -2.89  O2
  Sulfur          -92.90    -88.02    4.88  S

**For a gas, SI = log10(fugacity). Fugacity = pressure * phi / 1 atm.
  For ideal gases, phi = 1.

Reaction step 24.

Using solution 1.	Pure water
Using kinetics 1.	

Kinetics 1.	

	Time step: 30000 seconds  (Incremented time: 81110 seconds)

	Rate name       Delta Moles Total Moles   Reactant        Coefficient

	Gypsum           -7.884e-06   6.758e+00   Gypsum                    1

-----------------------------Solution composition------------------------------

	Elements           Molality       Moles

	Ca                1.505e-02   7.527e-03
	S                 1.505e-02   7.527e-03

----------------------------Description of solution----------------------------

                                       pH  =   7.066      Charge balance
                                       pe  =  11.631      Adjusted to redox equilibrium
      Specific Conductance (µS/cm,  25°C)  = 2485
                          Density (g/cm³)  =   0.99901
                               Volume (L)  =   0.50179
                        Viscosity (mPa s)  =   0.89855
                        Activity of water  =   1.000
                 Ionic strength (mol/kgw)  =   4.174e-02
                       Mass of water (kg)  =   5.003e-01
                 Total alkalinity (eq/kg)  =   1.215e-09
                         Temperature (°C)  =  25.00
                  Electrical balance (eq)  =  -3.745e-09
 Percent error, 100*(Cat-|An|)/(Cat+|An|)  =  -0.00
                               Iterations  = 114
                                  Total H  = 5.553632e+01
                                  Total O  = 2.779827e+01

----------------------------Distribution of species----------------------------

                                               Log       Log       Log    mole V
   Species          Molality    Activity  Molality  Activity     Gamma   cm³/mol

   OH-             1.430e-07   1.178e-07    -6.845    -6.929    -0.084     -3.90
   H+              9.976e-08   8.590e-08    -7.001    -7.066    -0.065      0.00
   H2O             5.551e+01   9.996e-01     1.744    -0.000     0.000     18.07
Ca            1.505e-02
   Ca+2            1.043e-02   5.167e-03    -1.982    -2.287    -0.305    -17.66
   CaSO4           4.611e-03   4.656e-03    -2.336    -2.332     0.004      7.50
   CaOH+           1.200e-08   9.979e-09    -7.921    -8.001    -0.080     (0)  
   CaHSO4+         3.162e-09   2.629e-09    -8.500    -8.580    -0.080     (0)  
H(0)          0.000e+00
   H2              0.000e+00   0.000e+00   -40.549   -40.544     0.004     28.61
O(0)          1.013e-11
   O2              5.063e-12   5.112e-12   -11.296   -11.291     0.004     30.40
S(-2)         0.000e+00
   HS-             0.000e+00   0.000e+00  -125.204  -125.288    -0.084     20.77
   H2S             0.000e+00   0.000e+00  -125.417  -125.413     0.004     36.27
   S-2             0.000e+00   0.000e+00  -130.828  -131.140    -0.312     (0)  
   (H2S)2          0.000e+00   0.000e+00  -252.108  -252.104     0.004     30.09
S(6)          1.505e-02
   SO4-2           1.043e-02   5.067e-03    -1.982    -2.295    -0.314     21.14
   CaSO4           4.611e-03   4.656e-03    -2.336    -2.332     0.004      7.50
   HSO4-           5.089e-08   4.232e-08    -7.293    -7.373    -0.080     40.44
   CaHSO4+         3.162e-09   2.629e-09    -8.500    -8.580    -0.080     (0)  

------------------------------Saturation indices-------------------------------

  Phase               SI** log IAP   log K(298 K,   1 atm)

  Anhydrite        -0.30     -4.58   -4.28  CaSO4
  Gypsum           -0.00     -4.58   -4.58  CaSO4:2H2O
  H2(g)           -37.44    -40.54   -3.10  H2
  H2O(g)           -1.50     -0.00    1.50  H2O
  H2S(g)         -124.42   -132.35   -7.94  H2S
  O2(g)            -8.40    -11.29   -2.89  O2
  Sulfur          -92.90    -88.02    4.88  S

**For a gas, SI = log10(fugacity). Fugacity = pressure * phi / 1 atm.
  For ideal gases, phi = 1.

Reaction step 25.

Using solution 1.	Pure water
Using kinetics 1.	

Kinetics 1.	

	Time step: 50000 seconds  (Incremented time: 131110 seconds)

	Rate name       Delta Moles Total Moles   Reactant        Coefficient

	Gypsum           -1.322e-07   6.758e+00   Gypsum                    1

-----------------------------Solution composition------------------------------

	Elements           Molality       Moles

	Ca                1.505e-02   7.527e-03
	S                 1.505e-02   7.527e-03

----------------------------Description of solution----------------------------

                                       pH  =   7.066      Charge balance
                                       pe  =  11.631      Adjusted to redox equilibrium
      Specific Conductance (µS/cm,  25°C)  = 2485
                          Density (g/cm³)  =   0.99901
                               Volume (L)  =   0.50179
                        Viscosity (mPa s)  =   0.89855
                        Activity of water  =   1.000
                 Ionic strength (mol/kgw)  =   4.174e-02
                       Mass of water (kg)  =   5.003e-01
                 Total alkalinity (eq/kg)  =   1.215e-09
                         Temperature (°C)  =  25.00
                  Electrical balance (eq)  =  -3.745e-09
 Percent error, 100*(Cat-|An|)/(Cat+|An|)  =  -0.00
                               Iterations  =  28
                                  Total H  = 5.553632e+01
                                  Total O  = 2.779827e+01

----------------------------Distribution of species----------------------------

                                               Log       Log       Log    mole V
   Species          Molality    Activity  Molality  Activity     Gamma   cm³/mol

   OH-             1.430e-07   1.178e-07    -6.845    -6.929    -0.084     -3.90
   H+              9.976e-08   8.590e-08    -7.001    -7.066    -0.065      0.00
   H2O             5.551e+01   9.996e-01     1.744    -0.000     0.000     18.07
Ca            1.505e-02
   Ca+2            1.043e-02   5.167e-03    -1.982    -2.287    -0.305    -17.66
   CaSO4           4.611e-03   4.656e-03    -2.336    -2.332     0.004      7.50
   CaOH+           1.200e-08   9.979e-09    -7.921    -8.001    -0.080     (0)  
   CaHSO4+         3.162e-09   2.629e-09    -8.500    -8.580    -0.080     (0)  
H(0)          0.000e+00
   H2              0.000e+00   0.000e+00   -40.549   -40.544     0.004     28.61
O(0)          1.012e-11
   O2              5.060e-12   5.109e-12   -11.296   -11.292     0.004     30.40
S(-2)         0.000e+00
   HS-             0.000e+00   0.000e+00  -125.203  -125.288    -0.084     20.77
   H2S             0.000e+00   0.000e+00  -125.416  -125.412     0.004     36.27
   S-2             0.000e+00   0.000e+00  -130.828  -131.140    -0.312     (0)  
   (H2S)2          0.000e+00   0.000e+00  -252.107  -252.103     0.004     30.09
S(6)          1.505e-02
   SO4-2           1.043e-02   5.067e-03    -1.982    -2.295    -0.314     21.14
   CaSO4           4.611e-03   4.656e-03    -2.336    -2.332     0.004      7.50
   HSO4-           5.089e-08   4.232e-08    -7.293    -7.373    -0.080     40.44
   CaHSO4+         3.162e-09   2.629e-09    -8.500    -8.580    -0.080     (0)  

------------------------------Saturation indices-------------------------------

  Phase               SI** log IAP   log K(298 K,   1 atm)

  Anhydrite        -0.30     -4.58   -4.28  CaSO4
  Gypsum           -0.00     -4.58   -4.58  CaSO4:2H2O
  H2(g)           -37.44    -40.54   -3.10  H2
  H2O(g)           -1.50     -0.00    1.50  H2O
  H2S(g)         -124.42   -132.35   -7.94  H2S
  O2(g)            -8.40    -11.29   -2.89  O2
  Sulfur          -92.90    -88.02    4.88  S

**For a gas, SI = log10(fugacity). Fugacity = pressure * phi / 1 atm.
  For ideal gases, phi = 1.

Reaction step 26.

Using solution 1.	Pure water
Using kinetics 1.	

Kinetics 1.	

	Time step: 80000 seconds  (Incremented time: 211110 seconds)

	Rate name       Delta Moles Total Moles   Reactant        Coefficient

	Gypsum            3.333e-09   6.758e+00   Gypsum                    1

-----------------------------Solution composition------------------------------

	Elements           Molality       Moles

	Ca                1.505e-02   7.527e-03
	S                 1.505e-02   7.527e-03

----------------------------Description of solution----------------------------

                                       pH  =   7.066      Charge balance
                                       pe  =  11.631      Adjusted to redox equilibrium
      Specific Conductance (µS/cm,  25°C)  = 2485
                          Density (g/cm³)  =   0.99901
                               Volume (L)  =   0.50179
                        Viscosity (mPa s)  =   0.89855
                        Activity of water  =   1.000
                 Ionic strength (mol/kgw)  =   4.174e-02
                       Mass of water (kg)  =   5.003e-01
                 Total alkalinity (eq/kg)  =   1.215e-09
                         Temperature (°C)  =  25.00
                  Electrical balance (eq)  =  -3.745e-09
 Percent error, 100*(Cat-|An|)/(Cat+|An|)  =  -0.00
                               Iterations  =  21
                                  Total H  = 5.553632e+01
                                  Total O  = 2.779827e+01

----------------------------Distribution of species----------------------------

                                               Log       Log       Log    mole V
   Species          Molality    Activity  Molality  Activity     Gamma   cm³/mol

   OH-             1.430e-07   1.178e-07    -6.845    -6.929    -0.084     -3.90
   H+              9.976e-08   8.590e-08    -7.001    -7.066    -0.065      0.00
   H2O             5.551e+01   9.996e-01     1.744    -0.000     0.000     18.07
Ca            1.505e-02
   Ca+2            1.043e-02   5.167e-03    -1.982    -2.287    -0.305    -17.66
   CaSO4           4.611e-03   4.656e-03    -2.336    -2.332     0.004      7.50
   CaOH+           1.200e-08   9.979e-09    -7.921    -8.001    -0.080     (0)  
   CaHSO4+         3.162e-09   2.629e-09    -8.500    -8.580    -0.080     (0)  
H(0)          0.000e+00
   H2              0.000e+00   0.000e+00   -40.549   -40.545     0.004     28.61
O(0)          1.013e-11
   O2              5.065e-12   5.114e-12   -11.295   -11.291     0.004     30.40
S(-2)         0.000e+00
   HS-             0.000e+00   0.000e+00  -125.204  -125.289    -0.084     20.77
   H2S             0.000e+00   0.000e+00  -125.417  -125.413     0.004     36.27
   S-2             0.000e+00   0.000e+00  -130.829  -131.141    -0.312     (0)  
   (H2S)2          0.000e+00   0.000e+00  -252.109  -252.104     0.004     30.09
S(6)          1.505e-02
   SO4-2           1.043e-02   5.067e-03    -1.982    -2.295    -0.314     21.14
   CaSO4           4.611e-03   4.656e-03    -2.336    -2.332     0.004      7.50
   HSO4-           5.089e-08   4.232e-08    -7.293    -7.373    -0.080     40.44
   CaHSO4+         3.162e-09   2.629e-09    -8.500    -8.580    -0.080     (0)  

------------------------------Saturation indices-------------------------------

  Phase               SI** log IAP   log K(298 K,   1 atm)

  Anhydrite        -0.30     -4.58   -4.28  CaSO4
  Gypsum           -0.00     -4.58   -4.58  CaSO4:2H2O
  H2(g)           -37.44    -40.54   -3.10  H2
  H2O(g)           -1.50     -0.00    1.50  H2O
  H2S(g)         -124.42   -132.35   -7.94  H2S
  O2(g)            -8.40    -11.29   -2.89  O2
  Sulfur          -92.90    -88.02    4.88  S

**For a gas, SI = log10(fugacity). Fugacity = pressure * phi / 1 atm.
  For ideal gases, phi = 1.

Reaction step 27.

Using solution 1.	Pure water
Using kinetics 1.	

Kinetics 1.	

	Time step: 100000 seconds  (Incremented time: 311110 seconds)

	Rate name       Delta Moles Total Moles   Reactant        Coefficient

	Gypsum            1.923e-09   6.758e+00   Gypsum                    1

-----------------------------Solution composition------------------------------

	Elements           Molality       Moles

	Ca                1.505e-02   7.527e-03
	S                 1.505e-02   7.527e-03

----------------------------Description of solution----------------------------

                                       pH  =   7.066      Charge balance
                                       pe  =  11.632      Adjusted to redox equilibrium
      Specific Conductance (µS/cm,  25°C)  = 2485
                          Density (g/cm³)  =   0.99901
                               Volume (L)  =   0.50179
                        Viscosity (mPa s)  =   0.89855
                        Activity of water  =   1.000
                 Ionic strength (mol/kgw)  =   4.174e-02
                       Mass of water (kg)  =   5.003e-01
                 Total alkalinity (eq/kg)  =   1.215e-09
                         Temperature (°C)  =  25.00
                  Electrical balance (eq)  =  -3.745e-09
 Percent error, 100*(Cat-|An|)/(Cat+|An|)  =  -0.00
                               Iterations  =  27
                                  Total H  = 5.553632e+01
                                  Total O  = 2.779827e+01

----------------------------Distribution of species----------------------------

                                               Log       Log       Log    mole V
   Species          Molality    Activity  Molality  Activity     Gamma   cm³/mol

   OH-             1.430e-07   1.178e-07    -6.845    -6.929    -0.084     -3.90
   H+              9.976e-08   8.590e-08    -7.001    -7.066    -0.065      0.00
   H2O             5.551e+01   9.996e-01     1.744    -0.000     0.000     18.07
Ca            1.505e-02
   Ca+2            1.043e-02   5.167e-03    -1.982    -2.287    -0.305    -17.66
   CaSO4           4.611e-03   4.656e-03    -2.336    -2.332     0.004      7.50
   CaOH+           1.200e-08   9.979e-09    -7.921    -8.001    -0.080     (0)  
   CaHSO4+         3.162e-09   2.629e-09    -8.500    -8.580    -0.080     (0)  
H(0)          0.000e+00
   H2              0.000e+00   0.000e+00   -40.549   -40.545     0.004     28.61
O(0)          1.015e-11
   O2              5.076e-12   5.125e-12   -11.294   -11.290     0.004     30.40
S(-2)         0.000e+00
   HS-             0.000e+00   0.000e+00  -125.206  -125.291    -0.084     20.77
   H2S             0.000e+00   0.000e+00  -125.419  -125.415     0.004     36.27
   S-2             0.000e+00   0.000e+00  -130.831  -131.143    -0.312     (0)  
   (H2S)2          0.000e+00   0.000e+00  -252.112  -252.108     0.004     30.09
S(6)          1.505e-02
   SO4-2           1.043e-02   5.067e-03    -1.982    -2.295    -0.314     21.14
   CaSO4           4.611e-03   4.656e-03    -2.336    -2.332     0.004      7.50
   HSO4-           5.089e-08   4.232e-08    -7.293    -7.373    -0.080     40.44
   CaHSO4+         3.162e-09   2.629e-09    -8.500    -8.580    -0.080     (0)  

------------------------------Saturation indices-------------------------------

  Phase               SI** log IAP   log K(298 K,   1 atm)

  Anhydrite        -0.30     -4.58   -4.28  CaSO4
  Gypsum           -0.00     -4.58   -4.58  CaSO4:2H2O
  H2(g)           -37.44    -40.55   -3.10  H2
  H2O(g)           -1.50     -0.00    1.50  H2O
  H2S(g)         -124.42   -132.36   -7.94  H2S
  O2(g)            -8.40    -11.29   -2.89  O2
  Sulfur          -92.90    -88.02    4.88  S

**For a gas, SI = log10(fugacity). Fugacity = pressure * phi / 1 atm.
  For ideal gases, phi = 1.

------------------
End of simulation.
------------------

------------------------------------
Reading input data for simulation 2.
------------------------------------

----------------------------------
End of Run after 0.743557 Seconds.
----------------------------------

